
---------- Begin Simulation Statistics ----------
final_tick                               70892825330500                       # Number of ticks from beginning of simulation (restored from checkpoints and never reset)
host_inst_rate                                  53207                       # Simulator instruction rate (inst/s)
host_mem_usage                                 793488                       # Number of bytes of host memory used
host_op_rate                                    85282                       # Simulator op (including micro ops) rate (op/s)
host_seconds                                   187.94                       # Real time elapsed on the host
host_tick_rate                               13919275                       # Simulator tick rate (ticks/s)
sim_freq                                 1000000000000                       # Frequency of simulated ticks
sim_insts                                    10000010                       # Number of instructions simulated
sim_ops                                      16028373                       # Number of ops (including micro ops) simulated
sim_seconds                                  0.002616                       # Number of seconds simulated
sim_ticks                                  2616054250                       # Number of ticks simulated
system.cpu.committedInsts                          10                       # Number of instructions committed
system.cpu.committedOps                            14                       # Number of ops (including micro ops) committed
system.cpu.dtb.rdAccesses                           5                       # TLB accesses on read requests
system.cpu.dtb.rdMisses                             0                       # TLB misses on read requests
system.cpu.dtb.wrAccesses                           2                       # TLB accesses on write requests
system.cpu.dtb.wrMisses                             0                       # TLB misses on write requests
system.cpu.idle_fraction                            0                       # Percentage of idle cycles
system.cpu.itb.rdAccesses                           0                       # TLB accesses on read requests
system.cpu.itb.rdMisses                             0                       # TLB misses on read requests
system.cpu.itb.wrAccesses                          15                       # TLB accesses on write requests
system.cpu.itb.wrMisses                             0                       # TLB misses on write requests
system.cpu.not_idle_fraction                        1                       # Percentage of non-idle cycles
system.cpu.numCycles                               19                       # number of cpu cycles simulated
system.cpu.numWorkItemsCompleted                    0                       # number of work items this cpu completed
system.cpu.numWorkItemsStarted                      0                       # number of work items this cpu started
system.cpu.num_busy_cycles                         19                       # Number of busy cycles
system.cpu.num_cc_register_reads                   20                       # number of times the CC registers were read
system.cpu.num_cc_register_writes                   6                       # number of times the CC registers were written
system.cpu.num_conditional_control_insts            0                       # number of instructions that are conditional controls
system.cpu.num_fp_alu_accesses                      0                       # Number of float alu accesses
system.cpu.num_fp_insts                             0                       # number of float instructions
system.cpu.num_fp_register_reads                    0                       # number of times the floating registers were read
system.cpu.num_fp_register_writes                   0                       # number of times the floating registers were written
system.cpu.num_func_calls                           0                       # number of times a function call or return occured
system.cpu.num_idle_cycles                          0                       # Number of idle cycles
system.cpu.num_int_alu_accesses                    14                       # Number of integer alu accesses
system.cpu.num_int_insts                           14                       # number of integer instructions
system.cpu.num_int_register_reads                  41                       # number of times the integer registers were read
system.cpu.num_int_register_writes                 12                       # number of times the integer registers were written
system.cpu.num_load_insts                           5                       # Number of load instructions
system.cpu.num_mem_refs                             7                       # number of memory refs
system.cpu.num_store_insts                          2                       # Number of store instructions
system.cpu.num_vec_alu_accesses                     0                       # Number of vector alu accesses
system.cpu.num_vec_insts                            0                       # number of vector instructions
system.cpu.num_vec_register_reads                   0                       # number of times the vector registers were read
system.cpu.num_vec_register_writes                  0                       # number of times the vector registers were written
system.cpu.op_class::No_OpClass                     0      0.00%      0.00% # Class of executed instruction
system.cpu.op_class::IntAlu                         7     50.00%     50.00% # Class of executed instruction
system.cpu.op_class::IntMult                        0      0.00%     50.00% # Class of executed instruction
system.cpu.op_class::IntDiv                         0      0.00%     50.00% # Class of executed instruction
system.cpu.op_class::FloatAdd                       0      0.00%     50.00% # Class of executed instruction
system.cpu.op_class::FloatCmp                       0      0.00%     50.00% # Class of executed instruction
system.cpu.op_class::FloatCvt                       0      0.00%     50.00% # Class of executed instruction
system.cpu.op_class::FloatMult                      0      0.00%     50.00% # Class of executed instruction
system.cpu.op_class::FloatMultAcc                   0      0.00%     50.00% # Class of executed instruction
system.cpu.op_class::FloatDiv                       0      0.00%     50.00% # Class of executed instruction
system.cpu.op_class::FloatMisc                      0      0.00%     50.00% # Class of executed instruction
system.cpu.op_class::FloatSqrt                      0      0.00%     50.00% # Class of executed instruction
system.cpu.op_class::SimdAdd                        0      0.00%     50.00% # Class of executed instruction
system.cpu.op_class::SimdAddAcc                     0      0.00%     50.00% # Class of executed instruction
system.cpu.op_class::SimdAlu                        0      0.00%     50.00% # Class of executed instruction
system.cpu.op_class::SimdCmp                        0      0.00%     50.00% # Class of executed instruction
system.cpu.op_class::SimdCvt                        0      0.00%     50.00% # Class of executed instruction
system.cpu.op_class::SimdMisc                       0      0.00%     50.00% # Class of executed instruction
system.cpu.op_class::SimdMult                       0      0.00%     50.00% # Class of executed instruction
system.cpu.op_class::SimdMultAcc                    0      0.00%     50.00% # Class of executed instruction
system.cpu.op_class::SimdShift                      0      0.00%     50.00% # Class of executed instruction
system.cpu.op_class::SimdShiftAcc                   0      0.00%     50.00% # Class of executed instruction
system.cpu.op_class::SimdDiv                        0      0.00%     50.00% # Class of executed instruction
system.cpu.op_class::SimdSqrt                       0      0.00%     50.00% # Class of executed instruction
system.cpu.op_class::SimdFloatAdd                   0      0.00%     50.00% # Class of executed instruction
system.cpu.op_class::SimdFloatAlu                   0      0.00%     50.00% # Class of executed instruction
system.cpu.op_class::SimdFloatCmp                   0      0.00%     50.00% # Class of executed instruction
system.cpu.op_class::SimdFloatCvt                   0      0.00%     50.00% # Class of executed instruction
system.cpu.op_class::SimdFloatDiv                   0      0.00%     50.00% # Class of executed instruction
system.cpu.op_class::SimdFloatMisc                  0      0.00%     50.00% # Class of executed instruction
system.cpu.op_class::SimdFloatMult                  0      0.00%     50.00% # Class of executed instruction
system.cpu.op_class::SimdFloatMultAcc               0      0.00%     50.00% # Class of executed instruction
system.cpu.op_class::SimdFloatSqrt                  0      0.00%     50.00% # Class of executed instruction
system.cpu.op_class::SimdReduceAdd                  0      0.00%     50.00% # Class of executed instruction
system.cpu.op_class::SimdReduceAlu                  0      0.00%     50.00% # Class of executed instruction
system.cpu.op_class::SimdReduceCmp                  0      0.00%     50.00% # Class of executed instruction
system.cpu.op_class::SimdFloatReduceAdd             0      0.00%     50.00% # Class of executed instruction
system.cpu.op_class::SimdFloatReduceCmp             0      0.00%     50.00% # Class of executed instruction
system.cpu.op_class::SimdAes                        0      0.00%     50.00% # Class of executed instruction
system.cpu.op_class::SimdAesMix                     0      0.00%     50.00% # Class of executed instruction
system.cpu.op_class::SimdSha1Hash                   0      0.00%     50.00% # Class of executed instruction
system.cpu.op_class::SimdSha1Hash2                  0      0.00%     50.00% # Class of executed instruction
system.cpu.op_class::SimdSha256Hash                 0      0.00%     50.00% # Class of executed instruction
system.cpu.op_class::SimdSha256Hash2                0      0.00%     50.00% # Class of executed instruction
system.cpu.op_class::SimdShaSigma2                  0      0.00%     50.00% # Class of executed instruction
system.cpu.op_class::SimdShaSigma3                  0      0.00%     50.00% # Class of executed instruction
system.cpu.op_class::SimdPredAlu                    0      0.00%     50.00% # Class of executed instruction
system.cpu.op_class::MemRead                        5     35.71%     85.71% # Class of executed instruction
system.cpu.op_class::MemWrite                       2     14.29%    100.00% # Class of executed instruction
system.cpu.op_class::FloatMemRead                   0      0.00%    100.00% # Class of executed instruction
system.cpu.op_class::FloatMemWrite                  0      0.00%    100.00% # Class of executed instruction
system.cpu.op_class::IprAccess                      0      0.00%    100.00% # Class of executed instruction
system.cpu.op_class::InstPrefetch                   0      0.00%    100.00% # Class of executed instruction
system.cpu.op_class::total                         14                       # Class of executed instruction
system.cpu.workload.numSyscalls                     0                       # Number of system calls
system.membus.snoop_filter.hit_multi_requests            0                       # Number of requests hitting in the snoop filter with multiple (>1) holders of the requested data.
system.membus.snoop_filter.hit_multi_snoops            0                       # Number of snoops hitting in the snoop filter with multiple (>1) holders of the requested data.
system.membus.snoop_filter.hit_single_requests           23                       # Number of requests hitting in the snoop filter with a single holder of the requested data.
system.membus.snoop_filter.hit_single_snoops            0                       # Number of snoops hitting in the snoop filter with a single holder of the requested data.
system.membus.snoop_filter.tot_requests          3056                       # Total number of requests made to the snoop filter.
system.membus.snoop_filter.tot_snoops               0                       # Total number of snoops made to the snoop filter.
system.switch_cpus.branchPred.BTBCorrect            0                       # Number of correct BTB predictions (this stat may not work properly.
system.switch_cpus.branchPred.BTBHitPct      0.000000                       # BTB Hit Percentage
system.switch_cpus.branchPred.BTBHits               0                       # Number of BTB hits
system.switch_cpus.branchPred.BTBLookups       617735                       # Number of BTB lookups
system.switch_cpus.branchPred.RASInCorrect            1                       # Number of incorrect RAS predictions.
system.switch_cpus.branchPred.condIncorrect        18750                       # Number of conditional branches incorrect
system.switch_cpus.branchPred.condPredicted       858327                       # Number of conditional branches predicted
system.switch_cpus.branchPred.indirectHits       494798                       # Number of indirect target hits.
system.switch_cpus.branchPred.indirectLookups       617735                       # Number of indirect predictor lookups.
system.switch_cpus.branchPred.indirectMisses       122937                       # Number of indirect misses.
system.switch_cpus.branchPred.lookups          936883                       # Number of BP lookups
system.switch_cpus.branchPred.usedRAS           38924                       # Number of times the RAS was used to get a target.
system.switch_cpus.branchPredindirectMispredicted         2096                       # Number of mispredicted indirect branches.
system.switch_cpus.cc_regfile_reads          14091089                       # number of cc regfile reads
system.switch_cpus.cc_regfile_writes          7117772                       # number of cc regfile writes
system.switch_cpus.commit.amos                      0                       # Number of atomic instructions committed
system.switch_cpus.commit.branchMispredicts        18777                       # The number of times a branch was mispredicted
system.switch_cpus.commit.branches             714318                       # Number of branches committed
system.switch_cpus.commit.bw_lim_events       1274006                       # number cycles where commit BW limit reached
system.switch_cpus.commit.commitSquashedInsts      1182224                       # The number of squashed insts skipped by commit
system.switch_cpus.commit.committedInsts     10000000                       # Number of instructions committed
system.switch_cpus.commit.committedOps       16028359                       # Number of ops (including micro ops) committed
system.switch_cpus.commit.committed_per_cycle::samples      5064347                       # Number of insts commited each cycle
system.switch_cpus.commit.committed_per_cycle::mean     3.164941                       # Number of insts commited each cycle
system.switch_cpus.commit.committed_per_cycle::stdev     3.139084                       # Number of insts commited each cycle
system.switch_cpus.commit.committed_per_cycle::underflows            0      0.00%      0.00% # Number of insts commited each cycle
system.switch_cpus.commit.committed_per_cycle::0       826942     16.33%     16.33% # Number of insts commited each cycle
system.switch_cpus.commit.committed_per_cycle::1      1864186     36.81%     53.14% # Number of insts commited each cycle
system.switch_cpus.commit.committed_per_cycle::2       416904      8.23%     61.37% # Number of insts commited each cycle
system.switch_cpus.commit.committed_per_cycle::3       188234      3.72%     65.09% # Number of insts commited each cycle
system.switch_cpus.commit.committed_per_cycle::4       139301      2.75%     67.84% # Number of insts commited each cycle
system.switch_cpus.commit.committed_per_cycle::5       164076      3.24%     71.08% # Number of insts commited each cycle
system.switch_cpus.commit.committed_per_cycle::6       138855      2.74%     73.82% # Number of insts commited each cycle
system.switch_cpus.commit.committed_per_cycle::7        51843      1.02%     74.84% # Number of insts commited each cycle
system.switch_cpus.commit.committed_per_cycle::8      1274006     25.16%    100.00% # Number of insts commited each cycle
system.switch_cpus.commit.committed_per_cycle::overflows            0      0.00%    100.00% # Number of insts commited each cycle
system.switch_cpus.commit.committed_per_cycle::min_value            0                       # Number of insts commited each cycle
system.switch_cpus.commit.committed_per_cycle::max_value            8                       # Number of insts commited each cycle
system.switch_cpus.commit.committed_per_cycle::total      5064347                       # Number of insts commited each cycle
system.switch_cpus.commit.fp_insts            1417974                       # Number of committed floating point instructions.
system.switch_cpus.commit.function_calls        31902                       # Number of function calls committed.
system.switch_cpus.commit.int_insts          14812880                       # Number of committed integer instructions.
system.switch_cpus.commit.loads               3609577                       # Number of loads committed
system.switch_cpus.commit.membars                   0                       # Number of memory barriers committed
system.switch_cpus.commit.op_class_0::No_OpClass        95071      0.59%      0.59% # Class of committed instruction
system.switch_cpus.commit.op_class_0::IntAlu      9822899     61.28%     61.88% # Class of committed instruction
system.switch_cpus.commit.op_class_0::IntMult        84240      0.53%     62.40% # Class of committed instruction
system.switch_cpus.commit.op_class_0::IntDiv            0      0.00%     62.40% # Class of committed instruction
system.switch_cpus.commit.op_class_0::FloatAdd        32039      0.20%     62.60% # Class of committed instruction
system.switch_cpus.commit.op_class_0::FloatCmp            0      0.00%     62.60% # Class of committed instruction
system.switch_cpus.commit.op_class_0::FloatCvt            0      0.00%     62.60% # Class of committed instruction
system.switch_cpus.commit.op_class_0::FloatMult            0      0.00%     62.60% # Class of committed instruction
system.switch_cpus.commit.op_class_0::FloatMultAcc            0      0.00%     62.60% # Class of committed instruction
system.switch_cpus.commit.op_class_0::FloatDiv            0      0.00%     62.60% # Class of committed instruction
system.switch_cpus.commit.op_class_0::FloatMisc            0      0.00%     62.60% # Class of committed instruction
system.switch_cpus.commit.op_class_0::FloatSqrt            0      0.00%     62.60% # Class of committed instruction
system.switch_cpus.commit.op_class_0::SimdAdd        21142      0.13%     62.73% # Class of committed instruction
system.switch_cpus.commit.op_class_0::SimdAddAcc            0      0.00%     62.73% # Class of committed instruction
system.switch_cpus.commit.op_class_0::SimdAlu       327752      2.04%     64.78% # Class of committed instruction
system.switch_cpus.commit.op_class_0::SimdCmp            0      0.00%     64.78% # Class of committed instruction
system.switch_cpus.commit.op_class_0::SimdCvt       126470      0.79%     65.57% # Class of committed instruction
system.switch_cpus.commit.op_class_0::SimdMisc       158042      0.99%     66.55% # Class of committed instruction
system.switch_cpus.commit.op_class_0::SimdMult            0      0.00%     66.55% # Class of committed instruction
system.switch_cpus.commit.op_class_0::SimdMultAcc            0      0.00%     66.55% # Class of committed instruction
system.switch_cpus.commit.op_class_0::SimdShift        63426      0.40%     66.95% # Class of committed instruction
system.switch_cpus.commit.op_class_0::SimdShiftAcc            0      0.00%     66.95% # Class of committed instruction
system.switch_cpus.commit.op_class_0::SimdDiv            0      0.00%     66.95% # Class of committed instruction
system.switch_cpus.commit.op_class_0::SimdSqrt            0      0.00%     66.95% # Class of committed instruction
system.switch_cpus.commit.op_class_0::SimdFloatAdd       107090      0.67%     67.62% # Class of committed instruction
system.switch_cpus.commit.op_class_0::SimdFloatAlu            0      0.00%     67.62% # Class of committed instruction
system.switch_cpus.commit.op_class_0::SimdFloatCmp           27      0.00%     67.62% # Class of committed instruction
system.switch_cpus.commit.op_class_0::SimdFloatCvt       149566      0.93%     68.55% # Class of committed instruction
system.switch_cpus.commit.op_class_0::SimdFloatDiv        21087      0.13%     68.68% # Class of committed instruction
system.switch_cpus.commit.op_class_0::SimdFloatMisc            0      0.00%     68.68% # Class of committed instruction
system.switch_cpus.commit.op_class_0::SimdFloatMult        10842      0.07%     68.75% # Class of committed instruction
system.switch_cpus.commit.op_class_0::SimdFloatMultAcc            0      0.00%     68.75% # Class of committed instruction
system.switch_cpus.commit.op_class_0::SimdFloatSqrt            0      0.00%     68.75% # Class of committed instruction
system.switch_cpus.commit.op_class_0::SimdReduceAdd            0      0.00%     68.75% # Class of committed instruction
system.switch_cpus.commit.op_class_0::SimdReduceAlu            0      0.00%     68.75% # Class of committed instruction
system.switch_cpus.commit.op_class_0::SimdReduceCmp            0      0.00%     68.75% # Class of committed instruction
system.switch_cpus.commit.op_class_0::SimdFloatReduceAdd            0      0.00%     68.75% # Class of committed instruction
system.switch_cpus.commit.op_class_0::SimdFloatReduceCmp            0      0.00%     68.75% # Class of committed instruction
system.switch_cpus.commit.op_class_0::SimdAes            0      0.00%     68.75% # Class of committed instruction
system.switch_cpus.commit.op_class_0::SimdAesMix            0      0.00%     68.75% # Class of committed instruction
system.switch_cpus.commit.op_class_0::SimdSha1Hash            0      0.00%     68.75% # Class of committed instruction
system.switch_cpus.commit.op_class_0::SimdSha1Hash2            0      0.00%     68.75% # Class of committed instruction
system.switch_cpus.commit.op_class_0::SimdSha256Hash            0      0.00%     68.75% # Class of committed instruction
system.switch_cpus.commit.op_class_0::SimdSha256Hash2            0      0.00%     68.75% # Class of committed instruction
system.switch_cpus.commit.op_class_0::SimdShaSigma2            0      0.00%     68.75% # Class of committed instruction
system.switch_cpus.commit.op_class_0::SimdShaSigma3            0      0.00%     68.75% # Class of committed instruction
system.switch_cpus.commit.op_class_0::SimdPredAlu            0      0.00%     68.75% # Class of committed instruction
system.switch_cpus.commit.op_class_0::MemRead      3386158     21.13%     89.88% # Class of committed instruction
system.switch_cpus.commit.op_class_0::MemWrite      1398812      8.73%     98.60% # Class of committed instruction
system.switch_cpus.commit.op_class_0::FloatMemRead       223419      1.39%    100.00% # Class of committed instruction
system.switch_cpus.commit.op_class_0::FloatMemWrite          277      0.00%    100.00% # Class of committed instruction
system.switch_cpus.commit.op_class_0::IprAccess            0      0.00%    100.00% # Class of committed instruction
system.switch_cpus.commit.op_class_0::InstPrefetch            0      0.00%    100.00% # Class of committed instruction
system.switch_cpus.commit.op_class_0::total     16028359                       # Class of committed instruction
system.switch_cpus.commit.refs                5008666                       # Number of memory references committed
system.switch_cpus.commit.swp_count                 0                       # Number of s/w prefetches committed
system.switch_cpus.commit.vec_insts                 0                       # Number of committed Vector instructions.
system.switch_cpus.committedInsts            10000000                       # Number of Instructions Simulated
system.switch_cpus.committedOps              16028359                       # Number of Ops (including micro ops) Simulated
system.switch_cpus.cpi                       0.523209                       # CPI: Cycles Per Instruction
system.switch_cpus.cpi_total                 0.523209                       # CPI: Total CPI of All Threads
system.switch_cpus.decode.BlockedCycles       2339240                       # Number of cycles decode is blocked
system.switch_cpus.decode.DecodedInsts       17541202                       # Number of instructions handled by decode
system.switch_cpus.decode.IdleCycles           555462                       # Number of cycles decode is idle
system.switch_cpus.decode.RunCycles           1519400                       # Number of cycles decode is running
system.switch_cpus.decode.SquashCycles          18998                       # Number of cycles decode is squashing
system.switch_cpus.decode.UnblockCycles        789135                       # Number of cycles decode is unblocking
system.switch_cpus.dtb.rdAccesses             3687016                       # TLB accesses on read requests
system.switch_cpus.dtb.rdMisses                    72                       # TLB misses on read requests
system.switch_cpus.dtb.wrAccesses             1408768                       # TLB accesses on write requests
system.switch_cpus.dtb.wrMisses                    92                       # TLB misses on write requests
system.switch_cpus.fetch.Branches              936883                       # Number of branches that fetch encountered
system.switch_cpus.fetch.CacheLines            843139                       # Number of cache lines fetched
system.switch_cpus.fetch.Cycles               4347127                       # Number of cycles fetch has run and was not squashing or blocked
system.switch_cpus.fetch.IcacheSquashes          3170                       # Number of outstanding Icache misses that were squashed
system.switch_cpus.fetch.Insts               10905155                       # Number of instructions fetch has processed
system.switch_cpus.fetch.MiscStallCycles           27                       # Number of cycles fetch has spent waiting on interrupts, or bad addresses, or out of MSHRs
system.switch_cpus.fetch.PendingTrapStallCycles          164                       # Number of stall cycles due to pending traps
system.switch_cpus.fetch.SquashCycles           37996                       # Number of cycles fetch has spent squashing
system.switch_cpus.fetch.branchRate          0.179065                       # Number of branch fetches per cycle
system.switch_cpus.fetch.icacheStallCycles       855925                       # Number of cycles fetch is stalled on an Icache miss
system.switch_cpus.fetch.predictedBranches       533722                       # Number of branches that fetch has predicted taken
system.switch_cpus.fetch.rate                2.084284                       # Number of inst fetches per cycle
system.switch_cpus.fetch.rateDist::samples      5222241                       # Number of instructions fetched each cycle (Total)
system.switch_cpus.fetch.rateDist::mean      3.401279                       # Number of instructions fetched each cycle (Total)
system.switch_cpus.fetch.rateDist::stdev     3.552859                       # Number of instructions fetched each cycle (Total)
system.switch_cpus.fetch.rateDist::underflows            0      0.00%      0.00% # Number of instructions fetched each cycle (Total)
system.switch_cpus.fetch.rateDist::0          2427514     46.48%     46.48% # Number of instructions fetched each cycle (Total)
system.switch_cpus.fetch.rateDist::1           138044      2.64%     49.13% # Number of instructions fetched each cycle (Total)
system.switch_cpus.fetch.rateDist::2           104271      2.00%     51.12% # Number of instructions fetched each cycle (Total)
system.switch_cpus.fetch.rateDist::3           147502      2.82%     53.95% # Number of instructions fetched each cycle (Total)
system.switch_cpus.fetch.rateDist::4           181474      3.48%     57.42% # Number of instructions fetched each cycle (Total)
system.switch_cpus.fetch.rateDist::5           334868      6.41%     63.84% # Number of instructions fetched each cycle (Total)
system.switch_cpus.fetch.rateDist::6           170603      3.27%     67.10% # Number of instructions fetched each cycle (Total)
system.switch_cpus.fetch.rateDist::7           194369      3.72%     70.82% # Number of instructions fetched each cycle (Total)
system.switch_cpus.fetch.rateDist::8          1523596     29.18%    100.00% # Number of instructions fetched each cycle (Total)
system.switch_cpus.fetch.rateDist::overflows            0      0.00%    100.00% # Number of instructions fetched each cycle (Total)
system.switch_cpus.fetch.rateDist::min_value            0                       # Number of instructions fetched each cycle (Total)
system.switch_cpus.fetch.rateDist::max_value            8                       # Number of instructions fetched each cycle (Total)
system.switch_cpus.fetch.rateDist::total      5222241                       # Number of instructions fetched each cycle (Total)
system.switch_cpus.fp_regfile_reads           2734113                       # number of floating regfile reads
system.switch_cpus.fp_regfile_writes          1361881                       # number of floating regfile writes
system.switch_cpus.idleCycles                    9847                       # Total number of cycles that the CPU has spent unscheduled due to idling
system.switch_cpus.iew.branchMispredicts        32432                       # Number of branch mispredicts detected at execute
system.switch_cpus.iew.exec_branches           775698                       # Number of branches executed
system.switch_cpus.iew.exec_nop                     0                       # number of nop insts executed
system.switch_cpus.iew.exec_rate             3.195548                       # Inst execution rate
system.switch_cpus.iew.exec_refs              5090384                       # number of memory reference insts executed
system.switch_cpus.iew.exec_stores            1408768                       # Number of stores executed
system.switch_cpus.iew.exec_swp                     0                       # number of swp insts executed
system.switch_cpus.iew.iewBlockCycles          139760                       # Number of cycles IEW is blocking
system.switch_cpus.iew.iewDispLoadInsts       3712674                       # Number of dispatched load instructions
system.switch_cpus.iew.iewDispNonSpecInsts            4                       # Number of dispatched non-speculative instructions
system.switch_cpus.iew.iewDispSquashedInsts          314                       # Number of squashed instructions skipped by dispatch
system.switch_cpus.iew.iewDispStoreInsts      1422742                       # Number of dispatched store instructions
system.switch_cpus.iew.iewDispatchedInsts     17210618                       # Number of instructions dispatched to IQ
system.switch_cpus.iew.iewExecLoadInsts       3681616                       # Number of load instructions executed
system.switch_cpus.iew.iewExecSquashedInsts        30044                       # Number of squashed instructions skipped in execute
system.switch_cpus.iew.iewExecutedInsts      16719387                       # Number of executed instructions
system.switch_cpus.iew.iewIQFullEvents             90                       # Number of times the IQ has become full, causing a stall
system.switch_cpus.iew.iewIdleCycles                0                       # Number of cycles IEW is idle
system.switch_cpus.iew.iewLSQFullEvents         46230                       # Number of times the LSQ has become full, causing a stall
system.switch_cpus.iew.iewSquashCycles          18998                       # Number of cycles IEW is squashing
system.switch_cpus.iew.iewUnblockCycles         47121                       # Number of cycles IEW is unblocking
system.switch_cpus.iew.lsq.thread0.blockedLoads            0                       # Number of blocked loads due to partial load-store forwarding
system.switch_cpus.iew.lsq.thread0.cacheBlocked          176                       # Number of times an access to memory failed due to the cache being blocked
system.switch_cpus.iew.lsq.thread0.forwLoads       390251                       # Number of loads that had data forwarded from stores
system.switch_cpus.iew.lsq.thread0.ignoredResponses           38                       # Number of memory responses ignored because the instruction is squashed
system.switch_cpus.iew.lsq.thread0.invAddrLoads            0                       # Number of loads ignored due to an invalid address
system.switch_cpus.iew.lsq.thread0.invAddrSwpfs            0                       # Number of software prefetches ignored due to an invalid address
system.switch_cpus.iew.lsq.thread0.memOrderViolation          251                       # Number of memory ordering violations
system.switch_cpus.iew.lsq.thread0.rescheduledLoads            0                       # Number of loads that were rescheduled
system.switch_cpus.iew.lsq.thread0.squashedLoads       103085                       # Number of loads squashed
system.switch_cpus.iew.lsq.thread0.squashedStores        23643                       # Number of stores squashed
system.switch_cpus.iew.memOrderViolationEvents          251                       # Number of memory order violations
system.switch_cpus.iew.predictedNotTakenIncorrect        27705                       # Number of branches that were predicted not taken incorrectly
system.switch_cpus.iew.predictedTakenIncorrect         4727                       # Number of branches that were predicted taken incorrectly
system.switch_cpus.iew.wb_consumers          26924000                       # num instructions consuming a value
system.switch_cpus.iew.wb_count              16704016                       # cumulative count of insts written-back
system.switch_cpus.iew.wb_fanout             0.497724                       # average fanout of values written-back
system.switch_cpus.iew.wb_producers          13400711                       # num instructions producing a value
system.switch_cpus.iew.wb_rate               3.192610                       # insts written-back per cycle
system.switch_cpus.iew.wb_sent               16710373                       # cumulative count of insts sent to commit
system.switch_cpus.int_regfile_reads         28974638                       # number of integer regfile reads
system.switch_cpus.int_regfile_writes        13055125                       # number of integer regfile writes
system.switch_cpus.ipc                       1.911283                       # IPC: Instructions Per Cycle
system.switch_cpus.ipc_total                 1.911283                       # IPC: Total IPC of All Threads
system.switch_cpus.iq.FU_type_0::No_OpClass        99784      0.60%      0.60% # Type of FU issued
system.switch_cpus.iq.FU_type_0::IntAlu      10365362     61.88%     62.48% # Type of FU issued
system.switch_cpus.iq.FU_type_0::IntMult        85847      0.51%     62.99% # Type of FU issued
system.switch_cpus.iq.FU_type_0::IntDiv             0      0.00%     62.99% # Type of FU issued
system.switch_cpus.iq.FU_type_0::FloatAdd        34526      0.21%     63.20% # Type of FU issued
system.switch_cpus.iq.FU_type_0::FloatCmp            0      0.00%     63.20% # Type of FU issued
system.switch_cpus.iq.FU_type_0::FloatCvt            0      0.00%     63.20% # Type of FU issued
system.switch_cpus.iq.FU_type_0::FloatMult            0      0.00%     63.20% # Type of FU issued
system.switch_cpus.iq.FU_type_0::FloatMultAcc            0      0.00%     63.20% # Type of FU issued
system.switch_cpus.iq.FU_type_0::FloatDiv            0      0.00%     63.20% # Type of FU issued
system.switch_cpus.iq.FU_type_0::FloatMisc            0      0.00%     63.20% # Type of FU issued
system.switch_cpus.iq.FU_type_0::FloatSqrt            0      0.00%     63.20% # Type of FU issued
system.switch_cpus.iq.FU_type_0::SimdAdd        21142      0.13%     63.33% # Type of FU issued
system.switch_cpus.iq.FU_type_0::SimdAddAcc            0      0.00%     63.33% # Type of FU issued
system.switch_cpus.iq.FU_type_0::SimdAlu       341193      2.04%     65.36% # Type of FU issued
system.switch_cpus.iq.FU_type_0::SimdCmp            0      0.00%     65.36% # Type of FU issued
system.switch_cpus.iq.FU_type_0::SimdCvt       128698      0.77%     66.13% # Type of FU issued
system.switch_cpus.iq.FU_type_0::SimdMisc       159898      0.95%     67.09% # Type of FU issued
system.switch_cpus.iq.FU_type_0::SimdMult            0      0.00%     67.09% # Type of FU issued
system.switch_cpus.iq.FU_type_0::SimdMultAcc            0      0.00%     67.09% # Type of FU issued
system.switch_cpus.iq.FU_type_0::SimdShift        63476      0.38%     67.46% # Type of FU issued
system.switch_cpus.iq.FU_type_0::SimdShiftAcc            0      0.00%     67.46% # Type of FU issued
system.switch_cpus.iq.FU_type_0::SimdDiv            0      0.00%     67.46% # Type of FU issued
system.switch_cpus.iq.FU_type_0::SimdSqrt            0      0.00%     67.46% # Type of FU issued
system.switch_cpus.iq.FU_type_0::SimdFloatAdd       138758      0.83%     68.29% # Type of FU issued
system.switch_cpus.iq.FU_type_0::SimdFloatAlu            0      0.00%     68.29% # Type of FU issued
system.switch_cpus.iq.FU_type_0::SimdFloatCmp           41      0.00%     68.29% # Type of FU issued
system.switch_cpus.iq.FU_type_0::SimdFloatCvt       175497      1.05%     69.34% # Type of FU issued
system.switch_cpus.iq.FU_type_0::SimdFloatDiv        23008      0.14%     69.48% # Type of FU issued
system.switch_cpus.iq.FU_type_0::SimdFloatMisc            0      0.00%     69.48% # Type of FU issued
system.switch_cpus.iq.FU_type_0::SimdFloatMult        12790      0.08%     69.55% # Type of FU issued
system.switch_cpus.iq.FU_type_0::SimdFloatMultAcc            0      0.00%     69.55% # Type of FU issued
system.switch_cpus.iq.FU_type_0::SimdFloatSqrt            0      0.00%     69.55% # Type of FU issued
system.switch_cpus.iq.FU_type_0::SimdReduceAdd            0      0.00%     69.55% # Type of FU issued
system.switch_cpus.iq.FU_type_0::SimdReduceAlu            0      0.00%     69.55% # Type of FU issued
system.switch_cpus.iq.FU_type_0::SimdReduceCmp            0      0.00%     69.55% # Type of FU issued
system.switch_cpus.iq.FU_type_0::SimdFloatReduceAdd            0      0.00%     69.55% # Type of FU issued
system.switch_cpus.iq.FU_type_0::SimdFloatReduceCmp            0      0.00%     69.55% # Type of FU issued
system.switch_cpus.iq.FU_type_0::SimdAes            0      0.00%     69.55% # Type of FU issued
system.switch_cpus.iq.FU_type_0::SimdAesMix            0      0.00%     69.55% # Type of FU issued
system.switch_cpus.iq.FU_type_0::SimdSha1Hash            0      0.00%     69.55% # Type of FU issued
system.switch_cpus.iq.FU_type_0::SimdSha1Hash2            0      0.00%     69.55% # Type of FU issued
system.switch_cpus.iq.FU_type_0::SimdSha256Hash            0      0.00%     69.55% # Type of FU issued
system.switch_cpus.iq.FU_type_0::SimdSha256Hash2            0      0.00%     69.55% # Type of FU issued
system.switch_cpus.iq.FU_type_0::SimdShaSigma2            0      0.00%     69.55% # Type of FU issued
system.switch_cpus.iq.FU_type_0::SimdShaSigma3            0      0.00%     69.55% # Type of FU issued
system.switch_cpus.iq.FU_type_0::SimdPredAlu            0      0.00%     69.55% # Type of FU issued
system.switch_cpus.iq.FU_type_0::MemRead      3410812     20.36%     89.92% # Type of FU issued
system.switch_cpus.iq.FU_type_0::MemWrite      1409882      8.42%     98.34% # Type of FU issued
system.switch_cpus.iq.FU_type_0::FloatMemRead       278335      1.66%    100.00% # Type of FU issued
system.switch_cpus.iq.FU_type_0::FloatMemWrite          383      0.00%    100.00% # Type of FU issued
system.switch_cpus.iq.FU_type_0::IprAccess            0      0.00%    100.00% # Type of FU issued
system.switch_cpus.iq.FU_type_0::InstPrefetch            0      0.00%    100.00% # Type of FU issued
system.switch_cpus.iq.FU_type_0::total       16749432                       # Type of FU issued
system.switch_cpus.iq.fp_alu_accesses         1576554                       # Number of floating point alu accesses
system.switch_cpus.iq.fp_inst_queue_reads      3132906                       # Number of floating instruction queue reads
system.switch_cpus.iq.fp_inst_queue_wakeup_accesses      1539449                       # Number of floating instruction queue wakeup accesses
system.switch_cpus.iq.fp_inst_queue_writes      1884410                       # Number of floating instruction queue writes
system.switch_cpus.iq.fu_busy_cnt              195349                       # FU busy when requested
system.switch_cpus.iq.fu_busy_rate           0.011663                       # FU busy rate (busy events/executed inst)
system.switch_cpus.iq.fu_full::No_OpClass            0      0.00%      0.00% # attempts to use FU when none available
system.switch_cpus.iq.fu_full::IntAlu          117095     59.94%     59.94% # attempts to use FU when none available
system.switch_cpus.iq.fu_full::IntMult              0      0.00%     59.94% # attempts to use FU when none available
system.switch_cpus.iq.fu_full::IntDiv               0      0.00%     59.94% # attempts to use FU when none available
system.switch_cpus.iq.fu_full::FloatAdd             0      0.00%     59.94% # attempts to use FU when none available
system.switch_cpus.iq.fu_full::FloatCmp             0      0.00%     59.94% # attempts to use FU when none available
system.switch_cpus.iq.fu_full::FloatCvt             0      0.00%     59.94% # attempts to use FU when none available
system.switch_cpus.iq.fu_full::FloatMult            0      0.00%     59.94% # attempts to use FU when none available
system.switch_cpus.iq.fu_full::FloatMultAcc            0      0.00%     59.94% # attempts to use FU when none available
system.switch_cpus.iq.fu_full::FloatDiv             0      0.00%     59.94% # attempts to use FU when none available
system.switch_cpus.iq.fu_full::FloatMisc            0      0.00%     59.94% # attempts to use FU when none available
system.switch_cpus.iq.fu_full::FloatSqrt            0      0.00%     59.94% # attempts to use FU when none available
system.switch_cpus.iq.fu_full::SimdAdd              0      0.00%     59.94% # attempts to use FU when none available
system.switch_cpus.iq.fu_full::SimdAddAcc            0      0.00%     59.94% # attempts to use FU when none available
system.switch_cpus.iq.fu_full::SimdAlu             59      0.03%     59.97% # attempts to use FU when none available
system.switch_cpus.iq.fu_full::SimdCmp              0      0.00%     59.97% # attempts to use FU when none available
system.switch_cpus.iq.fu_full::SimdCvt           3415      1.75%     61.72% # attempts to use FU when none available
system.switch_cpus.iq.fu_full::SimdMisc            18      0.01%     61.73% # attempts to use FU when none available
system.switch_cpus.iq.fu_full::SimdMult             0      0.00%     61.73% # attempts to use FU when none available
system.switch_cpus.iq.fu_full::SimdMultAcc            0      0.00%     61.73% # attempts to use FU when none available
system.switch_cpus.iq.fu_full::SimdShift            0      0.00%     61.73% # attempts to use FU when none available
system.switch_cpus.iq.fu_full::SimdShiftAcc            0      0.00%     61.73% # attempts to use FU when none available
system.switch_cpus.iq.fu_full::SimdDiv              0      0.00%     61.73% # attempts to use FU when none available
system.switch_cpus.iq.fu_full::SimdSqrt             0      0.00%     61.73% # attempts to use FU when none available
system.switch_cpus.iq.fu_full::SimdFloatAdd         1938      0.99%     62.72% # attempts to use FU when none available
system.switch_cpus.iq.fu_full::SimdFloatAlu            0      0.00%     62.72% # attempts to use FU when none available
system.switch_cpus.iq.fu_full::SimdFloatCmp            0      0.00%     62.72% # attempts to use FU when none available
system.switch_cpus.iq.fu_full::SimdFloatCvt         9999      5.12%     67.84% # attempts to use FU when none available
system.switch_cpus.iq.fu_full::SimdFloatDiv            0      0.00%     67.84% # attempts to use FU when none available
system.switch_cpus.iq.fu_full::SimdFloatMisc            0      0.00%     67.84% # attempts to use FU when none available
system.switch_cpus.iq.fu_full::SimdFloatMult            0      0.00%     67.84% # attempts to use FU when none available
system.switch_cpus.iq.fu_full::SimdFloatMultAcc            0      0.00%     67.84% # attempts to use FU when none available
system.switch_cpus.iq.fu_full::SimdFloatSqrt            0      0.00%     67.84% # attempts to use FU when none available
system.switch_cpus.iq.fu_full::SimdReduceAdd            0      0.00%     67.84% # attempts to use FU when none available
system.switch_cpus.iq.fu_full::SimdReduceAlu            0      0.00%     67.84% # attempts to use FU when none available
system.switch_cpus.iq.fu_full::SimdReduceCmp            0      0.00%     67.84% # attempts to use FU when none available
system.switch_cpus.iq.fu_full::SimdFloatReduceAdd            0      0.00%     67.84% # attempts to use FU when none available
system.switch_cpus.iq.fu_full::SimdFloatReduceCmp            0      0.00%     67.84% # attempts to use FU when none available
system.switch_cpus.iq.fu_full::SimdAes              0      0.00%     67.84% # attempts to use FU when none available
system.switch_cpus.iq.fu_full::SimdAesMix            0      0.00%     67.84% # attempts to use FU when none available
system.switch_cpus.iq.fu_full::SimdSha1Hash            0      0.00%     67.84% # attempts to use FU when none available
system.switch_cpus.iq.fu_full::SimdSha1Hash2            0      0.00%     67.84% # attempts to use FU when none available
system.switch_cpus.iq.fu_full::SimdSha256Hash            0      0.00%     67.84% # attempts to use FU when none available
system.switch_cpus.iq.fu_full::SimdSha256Hash2            0      0.00%     67.84% # attempts to use FU when none available
system.switch_cpus.iq.fu_full::SimdShaSigma2            0      0.00%     67.84% # attempts to use FU when none available
system.switch_cpus.iq.fu_full::SimdShaSigma3            0      0.00%     67.84% # attempts to use FU when none available
system.switch_cpus.iq.fu_full::SimdPredAlu            0      0.00%     67.84% # attempts to use FU when none available
system.switch_cpus.iq.fu_full::MemRead          56485     28.91%     96.75% # attempts to use FU when none available
system.switch_cpus.iq.fu_full::MemWrite          1304      0.67%     97.42% # attempts to use FU when none available
system.switch_cpus.iq.fu_full::FloatMemRead         5036      2.58%    100.00% # attempts to use FU when none available
system.switch_cpus.iq.fu_full::FloatMemWrite            0      0.00%    100.00% # attempts to use FU when none available
system.switch_cpus.iq.fu_full::IprAccess            0      0.00%    100.00% # attempts to use FU when none available
system.switch_cpus.iq.fu_full::InstPrefetch            0      0.00%    100.00% # attempts to use FU when none available
system.switch_cpus.iq.int_alu_accesses       15268443                       # Number of integer alu accesses
system.switch_cpus.iq.int_inst_queue_reads     35861149                       # Number of integer instruction queue reads
system.switch_cpus.iq.int_inst_queue_wakeup_accesses     15164567                       # Number of integer instruction queue wakeup accesses
system.switch_cpus.iq.int_inst_queue_writes     16508660                       # Number of integer instruction queue writes
system.switch_cpus.iq.iqInstsAdded           17210603                       # Number of instructions added to the IQ (excludes non-spec)
system.switch_cpus.iq.iqInstsIssued          16749432                       # Number of instructions issued
system.switch_cpus.iq.iqNonSpecInstsAdded           15                       # Number of non-speculative instructions added to the IQ
system.switch_cpus.iq.iqSquashedInstsExamined      1182203                       # Number of squashed instructions iterated over during squash; mainly for profiling
system.switch_cpus.iq.iqSquashedInstsIssued        77602                       # Number of squashed instructions issued
system.switch_cpus.iq.iqSquashedNonSpecRemoved           15                       # Number of squashed non-spec instructions that were removed
system.switch_cpus.iq.iqSquashedOperandsExamined      1717426                       # Number of squashed operands that are examined and possibly removed from graph
system.switch_cpus.iq.issued_per_cycle::samples      5222241                       # Number of insts issued each cycle
system.switch_cpus.iq.issued_per_cycle::mean     3.207327                       # Number of insts issued each cycle
system.switch_cpus.iq.issued_per_cycle::stdev     2.254470                       # Number of insts issued each cycle
system.switch_cpus.iq.issued_per_cycle::underflows            0      0.00%      0.00% # Number of insts issued each cycle
system.switch_cpus.iq.issued_per_cycle::0       733121     14.04%     14.04% # Number of insts issued each cycle
system.switch_cpus.iq.issued_per_cycle::1       587347     11.25%     25.29% # Number of insts issued each cycle
system.switch_cpus.iq.issued_per_cycle::2       878372     16.82%     42.11% # Number of insts issued each cycle
system.switch_cpus.iq.issued_per_cycle::3       807303     15.46%     57.56% # Number of insts issued each cycle
system.switch_cpus.iq.issued_per_cycle::4       738730     14.15%     71.71% # Number of insts issued each cycle
system.switch_cpus.iq.issued_per_cycle::5       617620     11.83%     83.54% # Number of insts issued each cycle
system.switch_cpus.iq.issued_per_cycle::6       338300      6.48%     90.01% # Number of insts issued each cycle
system.switch_cpus.iq.issued_per_cycle::7       260972      5.00%     95.01% # Number of insts issued each cycle
system.switch_cpus.iq.issued_per_cycle::8       260476      4.99%    100.00% # Number of insts issued each cycle
system.switch_cpus.iq.issued_per_cycle::overflows            0      0.00%    100.00% # Number of insts issued each cycle
system.switch_cpus.iq.issued_per_cycle::min_value            0                       # Number of insts issued each cycle
system.switch_cpus.iq.issued_per_cycle::max_value            8                       # Number of insts issued each cycle
system.switch_cpus.iq.issued_per_cycle::total      5222241                       # Number of insts issued each cycle
system.switch_cpus.iq.rate                   3.201290                       # Inst issue rate
system.switch_cpus.iq.vec_alu_accesses              0                       # Number of vector alu accesses
system.switch_cpus.iq.vec_inst_queue_reads            0                       # Number of vector instruction queue reads
system.switch_cpus.iq.vec_inst_queue_wakeup_accesses            0                       # Number of vector instruction queue wakeup accesses
system.switch_cpus.iq.vec_inst_queue_writes            0                       # Number of vector instruction queue writes
system.switch_cpus.itb.rdAccesses                   0                       # TLB accesses on read requests
system.switch_cpus.itb.rdMisses                     0                       # TLB misses on read requests
system.switch_cpus.itb.wrAccesses              843167                       # TLB accesses on write requests
system.switch_cpus.itb.wrMisses                    44                       # TLB misses on write requests
system.switch_cpus.memDep0.conflictingLoads       388752                       # Number of conflicting loads.
system.switch_cpus.memDep0.conflictingStores       290766                       # Number of conflicting stores.
system.switch_cpus.memDep0.insertedLoads      3712674                       # Number of loads inserted to the mem dependence unit.
system.switch_cpus.memDep0.insertedStores      1422742                       # Number of stores inserted to the mem dependence unit.
system.switch_cpus.misc_regfile_reads         6710893                       # number of misc regfile reads
system.switch_cpus.misc_regfile_writes              1                       # number of misc regfile writes
system.switch_cpus.numCycles                  5232088                       # number of cpu cycles simulated
system.switch_cpus.numWorkItemsCompleted            0                       # number of work items this cpu completed
system.switch_cpus.numWorkItemsStarted              0                       # number of work items this cpu started
system.switch_cpus.rename.BlockCycles          216927                       # Number of cycles rename is blocking
system.switch_cpus.rename.CommittedMaps      20724563                       # Number of HB maps that are committed
system.switch_cpus.rename.IQFullEvents         125326                       # Number of times rename has blocked due to IQ full
system.switch_cpus.rename.IdleCycles           870692                       # Number of cycles rename is idle
system.switch_cpus.rename.LQFullEvents         465469                       # Number of times rename has blocked due to LQ full
system.switch_cpus.rename.ROBFullEvents          2725                       # Number of times rename has blocked due to ROB full
system.switch_cpus.rename.RenameLookups      54784161                       # Number of register rename lookups that rename has made
system.switch_cpus.rename.RenamedInsts       17430751                       # Number of instructions processed by rename
system.switch_cpus.rename.RenamedOperands     22404834                       # Number of destination operands rename has renamed
system.switch_cpus.rename.RunCycles           1983037                       # Number of cycles rename is running
system.switch_cpus.rename.SQFullEvents        1273395                       # Number of times rename has blocked due to SQ full
system.switch_cpus.rename.SquashCycles          18998                       # Number of cycles rename is squashing
system.switch_cpus.rename.UnblockCycles       2132581                       # Number of cycles rename is unblocking
system.switch_cpus.rename.UndoneMaps          1680190                       # Number of HB maps that are undone due to squashing
system.switch_cpus.rename.fp_rename_lookups      2997284                       # Number of floating rename lookups
system.switch_cpus.rename.int_rename_lookups     29937627                       # Number of integer rename lookups
system.switch_cpus.rename.serializeStallCycles            0                       # count of cycles rename stalled for serializing inst
system.switch_cpus.rename.serializingInsts            0                       # count of serializing insts renamed
system.switch_cpus.rename.skidInsts           4160027                       # count of insts added to the skid buffer
system.switch_cpus.rename.tempSerializingInsts            0                       # count of temporary serializing insts renamed
system.switch_cpus.rob.rob_reads             21000924                       # The number of ROB reads
system.switch_cpus.rob.rob_writes            34579709                       # The number of ROB writes
system.switch_cpus.timesIdled                     152                       # Number of times that the entire CPU went into an idle state and unscheduled itself
system.tol2bus.snoop_filter.hit_multi_requests            0                       # Number of requests hitting in the snoop filter with multiple (>1) holders of the requested data.
system.tol2bus.snoop_filter.hit_multi_snoops            0                       # Number of snoops hitting in the snoop filter with multiple (>1) holders of the requested data.
system.tol2bus.snoop_filter.hit_single_requests        24560                       # Number of requests hitting in the snoop filter with a single holder of the requested data.
system.tol2bus.snoop_filter.hit_single_snoops           65                       # Number of snoops hitting in the snoop filter with a single holder of the requested data.
system.tol2bus.snoop_filter.tot_requests        50270                       # Total number of requests made to the snoop filter.
system.tol2bus.snoop_filter.tot_snoops             65                       # Total number of snoops made to the snoop filter.
system.membus.pwrStateResidencyTicks::UNDEFINED 70892825330500                       # Cumulative time (in ticks) in various power states
system.membus.trans_dist::ReadResp                707                       # Transaction distribution
system.membus.trans_dist::WritebackDirty           11                       # Transaction distribution
system.membus.trans_dist::CleanEvict               12                       # Transaction distribution
system.membus.trans_dist::ReadExReq              2326                       # Transaction distribution
system.membus.trans_dist::ReadExResp             2326                       # Transaction distribution
system.membus.trans_dist::ReadSharedReq           707                       # Transaction distribution
system.membus.pkt_count_system.l2.mem_side::system.mem_ctrls.port         6089                       # Packet count per connected master and slave (bytes)
system.membus.pkt_count_system.l2.mem_side::total         6089                       # Packet count per connected master and slave (bytes)
system.membus.pkt_count::total                   6089                       # Packet count per connected master and slave (bytes)
system.membus.pkt_size_system.l2.mem_side::system.mem_ctrls.port       194816                       # Cumulative packet size per connected master and slave (bytes)
system.membus.pkt_size_system.l2.mem_side::total       194816                       # Cumulative packet size per connected master and slave (bytes)
system.membus.pkt_size::total                  194816                       # Cumulative packet size per connected master and slave (bytes)
system.membus.snoops                                0                       # Total snoops (count)
system.membus.snoopTraffic                          0                       # Total snoop traffic (bytes)
system.membus.snoop_fanout::samples              3033                       # Request fanout histogram
system.membus.snoop_fanout::mean                    0                       # Request fanout histogram
system.membus.snoop_fanout::stdev                   0                       # Request fanout histogram
system.membus.snoop_fanout::underflows              0      0.00%      0.00% # Request fanout histogram
system.membus.snoop_fanout::0                    3033    100.00%    100.00% # Request fanout histogram
system.membus.snoop_fanout::1                       0      0.00%    100.00% # Request fanout histogram
system.membus.snoop_fanout::overflows               0      0.00%    100.00% # Request fanout histogram
system.membus.snoop_fanout::min_value               0                       # Request fanout histogram
system.membus.snoop_fanout::max_value               0                       # Request fanout histogram
system.membus.snoop_fanout::total                3033                       # Request fanout histogram
system.membus.reqLayer2.occupancy             3752500                       # Layer occupancy (ticks)
system.membus.reqLayer2.utilization               0.1                       # Layer utilization (%)
system.membus.respLayer1.occupancy           16131000                       # Layer occupancy (ticks)
system.membus.respLayer1.utilization              0.6                       # Layer utilization (%)
system.switch_cpus.pwrStateResidencyTicks::OFF   2616054250                       # Cumulative time (in ticks) in various power states
system.switch_cpus.dtb.walker.pwrStateResidencyTicks::UNDEFINED 70892825330500                       # Cumulative time (in ticks) in various power states
system.switch_cpus.itb.walker.pwrStateResidencyTicks::UNDEFINED 70892825330500                       # Cumulative time (in ticks) in various power states
system.tol2bus.pwrStateResidencyTicks::UNDEFINED 70892825330500                       # Cumulative time (in ticks) in various power states
system.tol2bus.trans_dist::ReadResp              5828                       # Transaction distribution
system.tol2bus.trans_dist::WritebackDirty        19573                       # Transaction distribution
system.tol2bus.trans_dist::WritebackClean          214                       # Transaction distribution
system.tol2bus.trans_dist::CleanEvict            4860                       # Transaction distribution
system.tol2bus.trans_dist::ReadExReq            19882                       # Transaction distribution
system.tol2bus.trans_dist::ReadExResp           19881                       # Transaction distribution
system.tol2bus.trans_dist::ReadCleanReq           339                       # Transaction distribution
system.tol2bus.trans_dist::ReadSharedReq         5489                       # Transaction distribution
system.tol2bus.pkt_count_system.cpu.icache.mem_side::system.l2.cpu_side          892                       # Packet count per connected master and slave (bytes)
system.tol2bus.pkt_count_system.cpu.dcache.mem_side::system.l2.cpu_side        75087                       # Packet count per connected master and slave (bytes)
system.tol2bus.pkt_count::total                 75979                       # Packet count per connected master and slave (bytes)
system.tol2bus.pkt_size_system.cpu.icache.mem_side::system.l2.cpu_side        35392                       # Cumulative packet size per connected master and slave (bytes)
system.tol2bus.pkt_size_system.cpu.dcache.mem_side::system.l2.cpu_side      2875648                       # Cumulative packet size per connected master and slave (bytes)
system.tol2bus.pkt_size::total                2911040                       # Cumulative packet size per connected master and slave (bytes)
system.tol2bus.snoops                              87                       # Total snoops (count)
system.tol2bus.snoopTraffic                       704                       # Total snoop traffic (bytes)
system.tol2bus.snoop_fanout::samples            25797                       # Request fanout histogram
system.tol2bus.snoop_fanout::mean            0.002520                       # Request fanout histogram
system.tol2bus.snoop_fanout::stdev           0.050134                       # Request fanout histogram
system.tol2bus.snoop_fanout::underflows             0      0.00%      0.00% # Request fanout histogram
system.tol2bus.snoop_fanout::0                  25732     99.75%     99.75% # Request fanout histogram
system.tol2bus.snoop_fanout::1                     65      0.25%    100.00% # Request fanout histogram
system.tol2bus.snoop_fanout::2                      0      0.00%    100.00% # Request fanout histogram
system.tol2bus.snoop_fanout::3                      0      0.00%    100.00% # Request fanout histogram
system.tol2bus.snoop_fanout::4                      0      0.00%    100.00% # Request fanout histogram
system.tol2bus.snoop_fanout::overflows              0      0.00%    100.00% # Request fanout histogram
system.tol2bus.snoop_fanout::min_value              0                       # Request fanout histogram
system.tol2bus.snoop_fanout::max_value              1                       # Request fanout histogram
system.tol2bus.snoop_fanout::total              25797                       # Request fanout histogram
system.tol2bus.reqLayer0.occupancy           44907000                       # Layer occupancy (ticks)
system.tol2bus.reqLayer0.utilization              1.7                       # Layer utilization (%)
system.tol2bus.respLayer1.occupancy          38046000                       # Layer occupancy (ticks)
system.tol2bus.respLayer1.utilization             1.5                       # Layer utilization (%)
system.tol2bus.respLayer0.occupancy            506498                       # Layer occupancy (ticks)
system.tol2bus.respLayer0.utilization             0.0                       # Layer utilization (%)
system.voltage_domain.voltage                       1                       # Voltage in Volts
system.clk_domain.clock                          1000                       # Clock period in ticks
system.l2.pwrStateResidencyTicks::UNDEFINED 70892825330500                       # Cumulative time (in ticks) in various power states
system.l2.demand_hits::.switch_cpus.inst          200                       # number of demand (read+write) hits
system.l2.demand_hits::.switch_cpus.data        22477                       # number of demand (read+write) hits
system.l2.demand_hits::total                    22677                       # number of demand (read+write) hits
system.l2.overall_hits::.switch_cpus.inst          200                       # number of overall hits
system.l2.overall_hits::.switch_cpus.data        22477                       # number of overall hits
system.l2.overall_hits::total                   22677                       # number of overall hits
system.l2.demand_misses::.cpu.inst                  2                       # number of demand (read+write) misses
system.l2.demand_misses::.cpu.data                  6                       # number of demand (read+write) misses
system.l2.demand_misses::.switch_cpus.inst          137                       # number of demand (read+write) misses
system.l2.demand_misses::.switch_cpus.data         2888                       # number of demand (read+write) misses
system.l2.demand_misses::total                   3033                       # number of demand (read+write) misses
system.l2.overall_misses::.cpu.inst                 2                       # number of overall misses
system.l2.overall_misses::.cpu.data                 6                       # number of overall misses
system.l2.overall_misses::.switch_cpus.inst          137                       # number of overall misses
system.l2.overall_misses::.switch_cpus.data         2888                       # number of overall misses
system.l2.overall_misses::total                  3033                       # number of overall misses
system.l2.demand_miss_latency::.switch_cpus.inst     10917500                       # number of demand (read+write) miss cycles
system.l2.demand_miss_latency::.switch_cpus.data    230407500                       # number of demand (read+write) miss cycles
system.l2.demand_miss_latency::total        241325000                       # number of demand (read+write) miss cycles
system.l2.overall_miss_latency::.switch_cpus.inst     10917500                       # number of overall miss cycles
system.l2.overall_miss_latency::.switch_cpus.data    230407500                       # number of overall miss cycles
system.l2.overall_miss_latency::total       241325000                       # number of overall miss cycles
system.l2.demand_accesses::.cpu.inst                2                       # number of demand (read+write) accesses
system.l2.demand_accesses::.cpu.data                6                       # number of demand (read+write) accesses
system.l2.demand_accesses::.switch_cpus.inst          337                       # number of demand (read+write) accesses
system.l2.demand_accesses::.switch_cpus.data        25365                       # number of demand (read+write) accesses
system.l2.demand_accesses::total                25710                       # number of demand (read+write) accesses
system.l2.overall_accesses::.cpu.inst               2                       # number of overall (read+write) accesses
system.l2.overall_accesses::.cpu.data               6                       # number of overall (read+write) accesses
system.l2.overall_accesses::.switch_cpus.inst          337                       # number of overall (read+write) accesses
system.l2.overall_accesses::.switch_cpus.data        25365                       # number of overall (read+write) accesses
system.l2.overall_accesses::total               25710                       # number of overall (read+write) accesses
system.l2.demand_miss_rate::.cpu.inst               1                       # miss rate for demand accesses
system.l2.demand_miss_rate::.cpu.data               1                       # miss rate for demand accesses
system.l2.demand_miss_rate::.switch_cpus.inst     0.406528                       # miss rate for demand accesses
system.l2.demand_miss_rate::.switch_cpus.data     0.113858                       # miss rate for demand accesses
system.l2.demand_miss_rate::total            0.117970                       # miss rate for demand accesses
system.l2.overall_miss_rate::.cpu.inst              1                       # miss rate for overall accesses
system.l2.overall_miss_rate::.cpu.data              1                       # miss rate for overall accesses
system.l2.overall_miss_rate::.switch_cpus.inst     0.406528                       # miss rate for overall accesses
system.l2.overall_miss_rate::.switch_cpus.data     0.113858                       # miss rate for overall accesses
system.l2.overall_miss_rate::total           0.117970                       # miss rate for overall accesses
system.l2.demand_avg_miss_latency::.switch_cpus.inst 79689.781022                       # average overall miss latency
system.l2.demand_avg_miss_latency::.switch_cpus.data 79780.990305                       # average overall miss latency
system.l2.demand_avg_miss_latency::total 79566.435872                       # average overall miss latency
system.l2.overall_avg_miss_latency::.switch_cpus.inst 79689.781022                       # average overall miss latency
system.l2.overall_avg_miss_latency::.switch_cpus.data 79780.990305                       # average overall miss latency
system.l2.overall_avg_miss_latency::total 79566.435872                       # average overall miss latency
system.l2.blocked_cycles::no_mshrs                  0                       # number of cycles access was blocked
system.l2.blocked_cycles::no_targets                0                       # number of cycles access was blocked
system.l2.blocked::no_mshrs                         0                       # number of cycles access was blocked
system.l2.blocked::no_targets                       0                       # number of cycles access was blocked
system.l2.avg_blocked_cycles::no_mshrs            nan                       # average number of cycles each access was blocked
system.l2.avg_blocked_cycles::no_targets          nan                       # average number of cycles each access was blocked
system.l2.writebacks::.writebacks                  11                       # number of writebacks
system.l2.writebacks::total                        11                       # number of writebacks
system.l2.demand_mshr_misses::.switch_cpus.inst          137                       # number of demand (read+write) MSHR misses
system.l2.demand_mshr_misses::.switch_cpus.data         2888                       # number of demand (read+write) MSHR misses
system.l2.demand_mshr_misses::total              3025                       # number of demand (read+write) MSHR misses
system.l2.overall_mshr_misses::.switch_cpus.inst          137                       # number of overall MSHR misses
system.l2.overall_mshr_misses::.switch_cpus.data         2888                       # number of overall MSHR misses
system.l2.overall_mshr_misses::total             3025                       # number of overall MSHR misses
system.l2.demand_mshr_miss_latency::.switch_cpus.inst      9547500                       # number of demand (read+write) MSHR miss cycles
system.l2.demand_mshr_miss_latency::.switch_cpus.data    201527500                       # number of demand (read+write) MSHR miss cycles
system.l2.demand_mshr_miss_latency::total    211075000                       # number of demand (read+write) MSHR miss cycles
system.l2.overall_mshr_miss_latency::.switch_cpus.inst      9547500                       # number of overall MSHR miss cycles
system.l2.overall_mshr_miss_latency::.switch_cpus.data    201527500                       # number of overall MSHR miss cycles
system.l2.overall_mshr_miss_latency::total    211075000                       # number of overall MSHR miss cycles
system.l2.demand_mshr_miss_rate::.switch_cpus.inst     0.406528                       # mshr miss rate for demand accesses
system.l2.demand_mshr_miss_rate::.switch_cpus.data     0.113858                       # mshr miss rate for demand accesses
system.l2.demand_mshr_miss_rate::total       0.117658                       # mshr miss rate for demand accesses
system.l2.overall_mshr_miss_rate::.switch_cpus.inst     0.406528                       # mshr miss rate for overall accesses
system.l2.overall_mshr_miss_rate::.switch_cpus.data     0.113858                       # mshr miss rate for overall accesses
system.l2.overall_mshr_miss_rate::total      0.117658                       # mshr miss rate for overall accesses
system.l2.demand_avg_mshr_miss_latency::.switch_cpus.inst 69689.781022                       # average overall mshr miss latency
system.l2.demand_avg_mshr_miss_latency::.switch_cpus.data 69780.990305                       # average overall mshr miss latency
system.l2.demand_avg_mshr_miss_latency::total 69776.859504                       # average overall mshr miss latency
system.l2.overall_avg_mshr_miss_latency::.switch_cpus.inst 69689.781022                       # average overall mshr miss latency
system.l2.overall_avg_mshr_miss_latency::.switch_cpus.data 69780.990305                       # average overall mshr miss latency
system.l2.overall_avg_mshr_miss_latency::total 69776.859504                       # average overall mshr miss latency
system.l2.replacements                             87                       # number of replacements
system.l2.WritebackDirty_hits::.writebacks        19562                       # number of WritebackDirty hits
system.l2.WritebackDirty_hits::total            19562                       # number of WritebackDirty hits
system.l2.WritebackDirty_accesses::.writebacks        19562                       # number of WritebackDirty accesses(hits+misses)
system.l2.WritebackDirty_accesses::total        19562                       # number of WritebackDirty accesses(hits+misses)
system.l2.WritebackClean_hits::.writebacks          214                       # number of WritebackClean hits
system.l2.WritebackClean_hits::total              214                       # number of WritebackClean hits
system.l2.WritebackClean_accesses::.writebacks          214                       # number of WritebackClean accesses(hits+misses)
system.l2.WritebackClean_accesses::total          214                       # number of WritebackClean accesses(hits+misses)
system.l2.CleanEvict_mshr_misses::.writebacks            1                       # number of CleanEvict MSHR misses
system.l2.CleanEvict_mshr_misses::total             1                       # number of CleanEvict MSHR misses
system.l2.CleanEvict_mshr_miss_rate::.writebacks          inf                       # mshr miss rate for CleanEvict accesses
system.l2.CleanEvict_mshr_miss_rate::total          inf                       # mshr miss rate for CleanEvict accesses
system.l2.ReadExReq_hits::.switch_cpus.data        17556                       # number of ReadExReq hits
system.l2.ReadExReq_hits::total                 17556                       # number of ReadExReq hits
system.l2.ReadExReq_misses::.cpu.data               2                       # number of ReadExReq misses
system.l2.ReadExReq_misses::.switch_cpus.data         2324                       # number of ReadExReq misses
system.l2.ReadExReq_misses::total                2326                       # number of ReadExReq misses
system.l2.ReadExReq_miss_latency::.switch_cpus.data    182535500                       # number of ReadExReq miss cycles
system.l2.ReadExReq_miss_latency::total     182535500                       # number of ReadExReq miss cycles
system.l2.ReadExReq_accesses::.cpu.data             2                       # number of ReadExReq accesses(hits+misses)
system.l2.ReadExReq_accesses::.switch_cpus.data        19880                       # number of ReadExReq accesses(hits+misses)
system.l2.ReadExReq_accesses::total             19882                       # number of ReadExReq accesses(hits+misses)
system.l2.ReadExReq_miss_rate::.cpu.data            1                       # miss rate for ReadExReq accesses
system.l2.ReadExReq_miss_rate::.switch_cpus.data     0.116901                       # miss rate for ReadExReq accesses
system.l2.ReadExReq_miss_rate::total         0.116990                       # miss rate for ReadExReq accesses
system.l2.ReadExReq_avg_miss_latency::.switch_cpus.data 78543.674699                       # average ReadExReq miss latency
system.l2.ReadExReq_avg_miss_latency::total 78476.139295                       # average ReadExReq miss latency
system.l2.ReadExReq_mshr_misses::.switch_cpus.data         2324                       # number of ReadExReq MSHR misses
system.l2.ReadExReq_mshr_misses::total           2324                       # number of ReadExReq MSHR misses
system.l2.ReadExReq_mshr_miss_latency::.switch_cpus.data    159295500                       # number of ReadExReq MSHR miss cycles
system.l2.ReadExReq_mshr_miss_latency::total    159295500                       # number of ReadExReq MSHR miss cycles
system.l2.ReadExReq_mshr_miss_rate::.switch_cpus.data     0.116901                       # mshr miss rate for ReadExReq accesses
system.l2.ReadExReq_mshr_miss_rate::total     0.116890                       # mshr miss rate for ReadExReq accesses
system.l2.ReadExReq_avg_mshr_miss_latency::.switch_cpus.data 68543.674699                       # average ReadExReq mshr miss latency
system.l2.ReadExReq_avg_mshr_miss_latency::total 68543.674699                       # average ReadExReq mshr miss latency
system.l2.ReadCleanReq_hits::.switch_cpus.inst          200                       # number of ReadCleanReq hits
system.l2.ReadCleanReq_hits::total                200                       # number of ReadCleanReq hits
system.l2.ReadCleanReq_misses::.cpu.inst            2                       # number of ReadCleanReq misses
system.l2.ReadCleanReq_misses::.switch_cpus.inst          137                       # number of ReadCleanReq misses
system.l2.ReadCleanReq_misses::total              139                       # number of ReadCleanReq misses
system.l2.ReadCleanReq_miss_latency::.switch_cpus.inst     10917500                       # number of ReadCleanReq miss cycles
system.l2.ReadCleanReq_miss_latency::total     10917500                       # number of ReadCleanReq miss cycles
system.l2.ReadCleanReq_accesses::.cpu.inst            2                       # number of ReadCleanReq accesses(hits+misses)
system.l2.ReadCleanReq_accesses::.switch_cpus.inst          337                       # number of ReadCleanReq accesses(hits+misses)
system.l2.ReadCleanReq_accesses::total            339                       # number of ReadCleanReq accesses(hits+misses)
system.l2.ReadCleanReq_miss_rate::.cpu.inst            1                       # miss rate for ReadCleanReq accesses
system.l2.ReadCleanReq_miss_rate::.switch_cpus.inst     0.406528                       # miss rate for ReadCleanReq accesses
[...]
system.cpu.itb.walker.pwrStateResidencyTicks::UNDEFINED 70900541360000                       # Cumulative time (in ticks) in various power states
system.cpu.dtb_walker_cache.pwrStateResidencyTicks::UNDEFINED 70900541360000                       # Cumulative time (in ticks) in various power states
system.cpu.dtb_walker_cache.blocked_cycles::no_mshrs            0                       # number of cycles access was blocked
system.cpu.dtb_walker_cache.blocked_cycles::no_targets            0                       # number of cycles access was blocked
system.cpu.dtb_walker_cache.blocked::no_mshrs            0                       # number of cycles access was blocked
system.cpu.dtb_walker_cache.blocked::no_targets            0                       # number of cycles access was blocked
system.cpu.dtb_walker_cache.avg_blocked_cycles::no_mshrs          nan                       # average number of cycles each access was blocked
system.cpu.dtb_walker_cache.avg_blocked_cycles::no_targets          nan                       # average number of cycles each access was blocked
system.cpu.dtb_walker_cache.replacements            0                       # number of replacements
system.cpu.dtb_walker_cache.tags.pwrStateResidencyTicks::UNDEFINED 70900541360000                       # Cumulative time (in ticks) in various power states
system.cpu.dtb_walker_cache.tags.tagsinuse            0                       # Cycle average of tags in use
system.cpu.dtb_walker_cache.tags.total_refs            0                       # Total number of references to valid blocks.
system.cpu.dtb_walker_cache.tags.sampled_refs            0                       # Sample count of references to valid blocks.
system.cpu.dtb_walker_cache.tags.avg_refs          nan                       # Average number of references to valid blocks.
system.cpu.dtb_walker_cache.tags.warmup_cycle            0                       # Cycle when the warmup percentage was hit.
system.cpu.dtb_walker_cache.tags.tag_accesses            0                       # Number of tag accesses
system.cpu.dtb_walker_cache.tags.data_accesses            0                       # Number of data accesses
system.cpu.dcache.pwrStateResidencyTicks::UNDEFINED 70900541360000                       # Cumulative time (in ticks) in various power states
system.cpu.dcache.demand_hits::.cpu.data            1                       # number of demand (read+write) hits
system.cpu.dcache.demand_hits::.switch_cpus.data     18892495                       # number of demand (read+write) hits
system.cpu.dcache.demand_hits::total         18892496                       # number of demand (read+write) hits
system.cpu.dcache.overall_hits::.cpu.data            1                       # number of overall hits
system.cpu.dcache.overall_hits::.switch_cpus.data     18941008                       # number of overall hits
system.cpu.dcache.overall_hits::total        18941009                       # number of overall hits
system.cpu.dcache.demand_misses::.cpu.data            6                       # number of demand (read+write) misses
system.cpu.dcache.demand_misses::.switch_cpus.data       106315                       # number of demand (read+write) misses
system.cpu.dcache.demand_misses::total         106321                       # number of demand (read+write) misses
system.cpu.dcache.overall_misses::.cpu.data            6                       # number of overall misses
system.cpu.dcache.overall_misses::.switch_cpus.data       109178                       # number of overall misses
system.cpu.dcache.overall_misses::total        109184                       # number of overall misses
system.cpu.dcache.demand_miss_latency::.switch_cpus.data   1732484991                       # number of demand (read+write) miss cycles
system.cpu.dcache.demand_miss_latency::total   1732484991                       # number of demand (read+write) miss cycles
system.cpu.dcache.overall_miss_latency::.switch_cpus.data   1732484991                       # number of overall miss cycles
system.cpu.dcache.overall_miss_latency::total   1732484991                       # number of overall miss cycles
system.cpu.dcache.demand_accesses::.cpu.data            7                       # number of demand (read+write) accesses
system.cpu.dcache.demand_accesses::.switch_cpus.data     18998810                       # number of demand (read+write) accesses
system.cpu.dcache.demand_accesses::total     18998817                       # number of demand (read+write) accesses
system.cpu.dcache.overall_accesses::.cpu.data            7                       # number of overall (read+write) accesses
system.cpu.dcache.overall_accesses::.switch_cpus.data     19050186                       # number of overall (read+write) accesses
system.cpu.dcache.overall_accesses::total     19050193                       # number of overall (read+write) accesses
system.cpu.dcache.demand_miss_rate::.cpu.data     0.857143                       # miss rate for demand accesses
system.cpu.dcache.demand_miss_rate::.switch_cpus.data     0.005596                       # miss rate for demand accesses
system.cpu.dcache.demand_miss_rate::total     0.005596                       # miss rate for demand accesses
system.cpu.dcache.overall_miss_rate::.cpu.data     0.857143                       # miss rate for overall accesses
system.cpu.dcache.overall_miss_rate::.switch_cpus.data     0.005731                       # miss rate for overall accesses
system.cpu.dcache.overall_miss_rate::total     0.005731                       # miss rate for overall accesses
system.cpu.dcache.demand_avg_miss_latency::.switch_cpus.data 16295.771914                       # average overall miss latency
system.cpu.dcache.demand_avg_miss_latency::total 16294.852296                       # average overall miss latency
system.cpu.dcache.overall_avg_miss_latency::.switch_cpus.data 15868.444110                       # average overall miss latency
system.cpu.dcache.overall_avg_miss_latency::total 15867.572089                       # average overall miss latency
system.cpu.dcache.blocked_cycles::no_mshrs         7391                       # number of cycles access was blocked
system.cpu.dcache.blocked_cycles::no_targets          128                       # number of cycles access was blocked
system.cpu.dcache.blocked::no_mshrs               759                       # number of cycles access was blocked
system.cpu.dcache.blocked::no_targets               2                       # number of cycles access was blocked
system.cpu.dcache.avg_blocked_cycles::no_mshrs     9.737813                       # average number of cycles each access was blocked
system.cpu.dcache.avg_blocked_cycles::no_targets           64                       # average number of cycles each access was blocked
system.cpu.dcache.writebacks::.writebacks        85733                       # number of writebacks
system.cpu.dcache.writebacks::total             85733                       # number of writebacks
system.cpu.dcache.demand_mshr_hits::.switch_cpus.data         3377                       # number of demand (read+write) MSHR hits
system.cpu.dcache.demand_mshr_hits::total         3377                       # number of demand (read+write) MSHR hits
system.cpu.dcache.overall_mshr_hits::.switch_cpus.data         3377                       # number of overall MSHR hits
system.cpu.dcache.overall_mshr_hits::total         3377                       # number of overall MSHR hits
system.cpu.dcache.demand_mshr_misses::.switch_cpus.data       102938                       # number of demand (read+write) MSHR misses
system.cpu.dcache.demand_mshr_misses::total       102938                       # number of demand (read+write) MSHR misses
system.cpu.dcache.overall_mshr_misses::.switch_cpus.data       105007                       # number of overall MSHR misses
system.cpu.dcache.overall_mshr_misses::total       105007                       # number of overall MSHR misses
system.cpu.dcache.demand_mshr_miss_latency::.switch_cpus.data   1575977991                       # number of demand (read+write) MSHR miss cycles
system.cpu.dcache.demand_mshr_miss_latency::total   1575977991                       # number of demand (read+write) MSHR miss cycles
system.cpu.dcache.overall_mshr_miss_latency::.switch_cpus.data   1622559991                       # number of overall MSHR miss cycles
system.cpu.dcache.overall_mshr_miss_latency::total   1622559991                       # number of overall MSHR miss cycles
system.cpu.dcache.demand_mshr_miss_rate::.switch_cpus.data     0.005418                       # mshr miss rate for demand accesses
system.cpu.dcache.demand_mshr_miss_rate::total     0.005418                       # mshr miss rate for demand accesses
system.cpu.dcache.overall_mshr_miss_rate::.switch_cpus.data     0.005512                       # mshr miss rate for overall accesses
system.cpu.dcache.overall_mshr_miss_rate::total     0.005512                       # mshr miss rate for overall accesses
system.cpu.dcache.demand_avg_mshr_miss_latency::.switch_cpus.data 15309.972906                       # average overall mshr miss latency
system.cpu.dcache.demand_avg_mshr_miss_latency::total 15309.972906                       # average overall mshr miss latency
system.cpu.dcache.overall_avg_mshr_miss_latency::.switch_cpus.data 15451.922167                       # average overall mshr miss latency
system.cpu.dcache.overall_avg_mshr_miss_latency::total 15451.922167                       # average overall mshr miss latency
system.cpu.dcache.replacements                 103989                       # number of replacements
system.cpu.dcache.ReadReq_hits::.cpu.data            1                       # number of ReadReq hits
system.cpu.dcache.ReadReq_hits::.switch_cpus.data     13360701                       # number of ReadReq hits
system.cpu.dcache.ReadReq_hits::total        13360702                       # number of ReadReq hits
system.cpu.dcache.ReadReq_misses::.cpu.data            4                       # number of ReadReq misses
system.cpu.dcache.ReadReq_misses::.switch_cpus.data        24969                       # number of ReadReq misses
system.cpu.dcache.ReadReq_misses::total         24973                       # number of ReadReq misses
system.cpu.dcache.ReadReq_miss_latency::.switch_cpus.data    392291000                       # number of ReadReq miss cycles
system.cpu.dcache.ReadReq_miss_latency::total    392291000                       # number of ReadReq miss cycles
system.cpu.dcache.ReadReq_accesses::.cpu.data            5                       # number of ReadReq accesses(hits+misses)
system.cpu.dcache.ReadReq_accesses::.switch_cpus.data     13385670                       # number of ReadReq accesses(hits+misses)
system.cpu.dcache.ReadReq_accesses::total     13385675                       # number of ReadReq accesses(hits+misses)
system.cpu.dcache.ReadReq_miss_rate::.cpu.data     0.800000                       # miss rate for ReadReq accesses
system.cpu.dcache.ReadReq_miss_rate::.switch_cpus.data     0.001865                       # miss rate for ReadReq accesses
system.cpu.dcache.ReadReq_miss_rate::total     0.001866                       # miss rate for ReadReq accesses
system.cpu.dcache.ReadReq_avg_miss_latency::.switch_cpus.data 15711.121791                       # average ReadReq miss latency
system.cpu.dcache.ReadReq_avg_miss_latency::total 15708.605294                       # average ReadReq miss latency
system.cpu.dcache.ReadReq_mshr_hits::.switch_cpus.data         3353                       # number of ReadReq MSHR hits
system.cpu.dcache.ReadReq_mshr_hits::total         3353                       # number of ReadReq MSHR hits
system.cpu.dcache.ReadReq_mshr_misses::.switch_cpus.data        21616                       # number of ReadReq MSHR misses
system.cpu.dcache.ReadReq_mshr_misses::total        21616                       # number of ReadReq MSHR misses
system.cpu.dcache.ReadReq_mshr_miss_latency::.switch_cpus.data    317546000                       # number of ReadReq MSHR miss cycles
system.cpu.dcache.ReadReq_mshr_miss_latency::total    317546000                       # number of ReadReq MSHR miss cycles
system.cpu.dcache.ReadReq_mshr_miss_rate::.switch_cpus.data     0.001615                       # mshr miss rate for ReadReq accesses
system.cpu.dcache.ReadReq_mshr_miss_rate::total     0.001615                       # mshr miss rate for ReadReq accesses
system.cpu.dcache.ReadReq_avg_mshr_miss_latency::.switch_cpus.data 14690.321984                       # average ReadReq mshr miss latency
system.cpu.dcache.ReadReq_avg_mshr_miss_latency::total 14690.321984                       # average ReadReq mshr miss latency
system.cpu.dcache.WriteReq_hits::.switch_cpus.data      5531794                       # number of WriteReq hits
system.cpu.dcache.WriteReq_hits::total        5531794                       # number of WriteReq hits
system.cpu.dcache.WriteReq_misses::.cpu.data            2                       # number of WriteReq misses
system.cpu.dcache.WriteReq_misses::.switch_cpus.data        81346                       # number of WriteReq misses
system.cpu.dcache.WriteReq_misses::total        81348                       # number of WriteReq misses
system.cpu.dcache.WriteReq_miss_latency::.switch_cpus.data   1340193991                       # number of WriteReq miss cycles
system.cpu.dcache.WriteReq_miss_latency::total   1340193991                       # number of WriteReq miss cycles
system.cpu.dcache.WriteReq_accesses::.cpu.data            2                       # number of WriteReq accesses(hits+misses)
system.cpu.dcache.WriteReq_accesses::.switch_cpus.data      5613140                       # number of WriteReq accesses(hits+misses)
system.cpu.dcache.WriteReq_accesses::total      5613142                       # number of WriteReq accesses(hits+misses)
system.cpu.dcache.WriteReq_miss_rate::.cpu.data            1                       # miss rate for WriteReq accesses
system.cpu.dcache.WriteReq_miss_rate::.switch_cpus.data     0.014492                       # miss rate for WriteReq accesses
system.cpu.dcache.WriteReq_miss_rate::total     0.014492                       # miss rate for WriteReq accesses
system.cpu.dcache.WriteReq_avg_miss_latency::.switch_cpus.data 16475.229157                       # average WriteReq miss latency
system.cpu.dcache.WriteReq_avg_miss_latency::total 16474.824101                       # average WriteReq miss latency
system.cpu.dcache.WriteReq_mshr_hits::.switch_cpus.data           24                       # number of WriteReq MSHR hits
system.cpu.dcache.WriteReq_mshr_hits::total           24                       # number of WriteReq MSHR hits
system.cpu.dcache.WriteReq_mshr_misses::.switch_cpus.data        81322                       # number of WriteReq MSHR misses
system.cpu.dcache.WriteReq_mshr_misses::total        81322                       # number of WriteReq MSHR misses
system.cpu.dcache.WriteReq_mshr_miss_latency::.switch_cpus.data   1258431991                       # number of WriteReq MSHR miss cycles
system.cpu.dcache.WriteReq_mshr_miss_latency::total   1258431991                       # number of WriteReq MSHR miss cycles
system.cpu.dcache.WriteReq_mshr_miss_rate::.switch_cpus.data     0.014488                       # mshr miss rate for WriteReq accesses
system.cpu.dcache.WriteReq_mshr_miss_rate::total     0.014488                       # mshr miss rate for WriteReq accesses
system.cpu.dcache.WriteReq_avg_mshr_miss_latency::.switch_cpus.data 15474.680787                       # average WriteReq mshr miss latency
system.cpu.dcache.WriteReq_avg_mshr_miss_latency::total 15474.680787                       # average WriteReq mshr miss latency
system.cpu.dcache.SoftPFReq_hits::.switch_cpus.data        48513                       # number of SoftPFReq hits
system.cpu.dcache.SoftPFReq_hits::total         48513                       # number of SoftPFReq hits
system.cpu.dcache.SoftPFReq_misses::.switch_cpus.data         2863                       # number of SoftPFReq misses
system.cpu.dcache.SoftPFReq_misses::total         2863                       # number of SoftPFReq misses
system.cpu.dcache.SoftPFReq_accesses::.switch_cpus.data        51376                       # number of SoftPFReq accesses(hits+misses)
system.cpu.dcache.SoftPFReq_accesses::total        51376                       # number of SoftPFReq accesses(hits+misses)
system.cpu.dcache.SoftPFReq_miss_rate::.switch_cpus.data     0.055726                       # miss rate for SoftPFReq accesses
system.cpu.dcache.SoftPFReq_miss_rate::total     0.055726                       # miss rate for SoftPFReq accesses
system.cpu.dcache.SoftPFReq_mshr_misses::.switch_cpus.data         2069                       # number of SoftPFReq MSHR misses
system.cpu.dcache.SoftPFReq_mshr_misses::total         2069                       # number of SoftPFReq MSHR misses
system.cpu.dcache.SoftPFReq_mshr_miss_latency::.switch_cpus.data     46582000                       # number of SoftPFReq MSHR miss cycles
system.cpu.dcache.SoftPFReq_mshr_miss_latency::total     46582000                       # number of SoftPFReq MSHR miss cycles
system.cpu.dcache.SoftPFReq_mshr_miss_rate::.switch_cpus.data     0.040272                       # mshr miss rate for SoftPFReq accesses
system.cpu.dcache.SoftPFReq_mshr_miss_rate::total     0.040272                       # mshr miss rate for SoftPFReq accesses
system.cpu.dcache.SoftPFReq_avg_mshr_miss_latency::.switch_cpus.data 22514.258096                       # average SoftPFReq mshr miss latency
system.cpu.dcache.SoftPFReq_avg_mshr_miss_latency::total 22514.258096                       # average SoftPFReq mshr miss latency
system.cpu.dcache.tags.pwrStateResidencyTicks::UNDEFINED 70900541360000                       # Cumulative time (in ticks) in various power states
system.cpu.dcache.tags.tagsinuse             0.148039                       # Cycle average of tags in use
system.cpu.dcache.tags.total_refs            19046022                       # Total number of references to valid blocks.
system.cpu.dcache.tags.sampled_refs            105013                       # Sample count of references to valid blocks.
system.cpu.dcache.tags.avg_refs            181.368231                       # Average number of references to valid blocks.
system.cpu.dcache.tags.warmup_cycle      70890209278500                       # Cycle when the warmup percentage was hit.
system.cpu.dcache.tags.occ_blocks::.cpu.data     0.000391                       # Average occupied blocks per requestor
system.cpu.dcache.tags.occ_blocks::.switch_cpus.data     0.147648                       # Average occupied blocks per requestor
system.cpu.dcache.tags.occ_percent::.cpu.data     0.000000                       # Average percentage of cache occupancy
system.cpu.dcache.tags.occ_percent::.switch_cpus.data     0.000144                       # Average percentage of cache occupancy
system.cpu.dcache.tags.occ_percent::total     0.000145                       # Average percentage of cache occupancy
system.cpu.dcache.tags.occ_task_id_blocks::1024         1024                       # Occupied blocks per task id
system.cpu.dcache.tags.age_task_id_blocks_1024::0            8                       # Occupied blocks per task id
system.cpu.dcache.tags.age_task_id_blocks_1024::1          533                       # Occupied blocks per task id
system.cpu.dcache.tags.age_task_id_blocks_1024::2          483                       # Occupied blocks per task id
system.cpu.dcache.tags.occ_task_id_percent::1024            1                       # Percentage of cache occupancy per task id
system.cpu.dcache.tags.tag_accesses          38205399                       # Number of tag accesses
system.cpu.dcache.tags.data_accesses         38205399                       # Number of data accesses

---------- End Simulation Statistics   ----------
