
---------- Begin Simulation Statistics ----------
final_tick                               371669187021500                       # Number of ticks from beginning of simulation (restored from checkpoints and never reset)
host_inst_rate                                  38239                       # Simulator instruction rate (inst/s)
host_mem_usage                                 898468                       # Number of bytes of host memory used
host_op_rate                                    85558                       # Simulator op (including micro ops) rate (op/s)
host_seconds                                   261.52                       # Real time elapsed on the host
host_tick_rate                               30943266                       # Simulator tick rate (ticks/s)
sim_freq                                 1000000000000                       # Frequency of simulated ticks
sim_insts                                    10000006                       # Number of instructions simulated
sim_ops                                      22374673                       # Number of ops (including micro ops) simulated
sim_seconds                                  0.008092                       # Number of seconds simulated
sim_ticks                                  8092139000                       # Number of ticks simulated
system.cpu.committedInsts                           5                       # Number of instructions committed
system.cpu.committedOps                            17                       # Number of ops (including micro ops) committed
system.cpu.dtb.rdAccesses                           8                       # TLB accesses on read requests
system.cpu.dtb.rdMisses                             0                       # TLB misses on read requests
system.cpu.dtb.wrAccesses                           0                       # TLB accesses on write requests
system.cpu.dtb.wrMisses                             0                       # TLB misses on write requests
system.cpu.idle_fraction                            0                       # Percentage of idle cycles
system.cpu.itb.rdAccesses                           0                       # TLB accesses on read requests
system.cpu.itb.rdMisses                             0                       # TLB misses on read requests
system.cpu.itb.wrAccesses                          10                       # TLB accesses on write requests
system.cpu.itb.wrMisses                             0                       # TLB misses on write requests
system.cpu.not_idle_fraction                        1                       # Percentage of non-idle cycles
system.cpu.numCycles                               22                       # number of cpu cycles simulated
system.cpu.numWorkItemsCompleted                    0                       # number of work items this cpu completed
system.cpu.numWorkItemsStarted                      0                       # number of work items this cpu started
system.cpu.num_busy_cycles                         22                       # Number of busy cycles
system.cpu.num_conditional_control_insts            0                       # number of instructions that are conditional controls
system.cpu.num_fp_alu_accesses                     16                       # Number of float alu accesses
system.cpu.num_fp_insts                            16                       # number of float instructions
system.cpu.num_fp_register_reads                   24                       # number of times the floating registers were read
system.cpu.num_fp_register_writes                  16                       # number of times the floating registers were written
system.cpu.num_func_calls                           0                       # number of times a function call or return occured
system.cpu.num_idle_cycles                          0                       # Number of idle cycles
system.cpu.num_int_alu_accesses                     9                       # Number of integer alu accesses
system.cpu.num_int_insts                            9                       # number of integer instructions
system.cpu.num_int_register_reads                  25                       # number of times the integer registers were read
system.cpu.num_int_register_writes                  1                       # number of times the integer registers were written
system.cpu.num_load_insts                           8                       # Number of load instructions
system.cpu.num_mem_refs                             8                       # number of memory refs
system.cpu.num_store_insts                          0                       # Number of store instructions
system.cpu.num_vec_alu_accesses                     0                       # Number of vector alu accesses
system.cpu.num_vec_insts                            0                       # number of vector instructions
system.cpu.num_vec_register_reads                   0                       # number of times the vector registers were read
system.cpu.num_vec_register_writes                  0                       # number of times the vector registers were written
system.cpu.op_class::No_OpClass                     0      0.00%      0.00% # Class of executed instruction
system.cpu.op_class::IntAlu                         1      5.88%      5.88% # Class of executed instruction
system.cpu.op_class::IntMult                        0      0.00%      5.88% # Class of executed instruction
system.cpu.op_class::IntDiv                         0      0.00%      5.88% # Class of executed instruction
system.cpu.op_class::FloatAdd                       0      0.00%      5.88% # Class of executed instruction
system.cpu.op_class::FloatCmp                       0      0.00%      5.88% # Class of executed instruction
system.cpu.op_class::FloatCvt                       0      0.00%      5.88% # Class of executed instruction
system.cpu.op_class::FloatMult                      0      0.00%      5.88% # Class of executed instruction
system.cpu.op_class::FloatMultAcc                   0      0.00%      5.88% # Class of executed instruction
system.cpu.op_class::FloatDiv                       0      0.00%      5.88% # Class of executed instruction
system.cpu.op_class::FloatMisc                      0      0.00%      5.88% # Class of executed instruction
system.cpu.op_class::FloatSqrt                      0      0.00%      5.88% # Class of executed instruction
system.cpu.op_class::SimdAdd                        0      0.00%      5.88% # Class of executed instruction
system.cpu.op_class::SimdAddAcc                     0      0.00%      5.88% # Class of executed instruction
system.cpu.op_class::SimdAlu                        0      0.00%      5.88% # Class of executed instruction
system.cpu.op_class::SimdCmp                        0      0.00%      5.88% # Class of executed instruction
system.cpu.op_class::SimdCvt                        0      0.00%      5.88% # Class of executed instruction
system.cpu.op_class::SimdMisc                       0      0.00%      5.88% # Class of executed instruction
system.cpu.op_class::SimdMult                       0      0.00%      5.88% # Class of executed instruction
system.cpu.op_class::SimdMultAcc                    0      0.00%      5.88% # Class of executed instruction
system.cpu.op_class::SimdShift                      0      0.00%      5.88% # Class of executed instruction
system.cpu.op_class::SimdShiftAcc                   0      0.00%      5.88% # Class of executed instruction
system.cpu.op_class::SimdDiv                        0      0.00%      5.88% # Class of executed instruction
system.cpu.op_class::SimdSqrt                       0      0.00%      5.88% # Class of executed instruction
system.cpu.op_class::SimdFloatAdd                   4     23.53%     29.41% # Class of executed instruction
system.cpu.op_class::SimdFloatAlu                   0      0.00%     29.41% # Class of executed instruction
system.cpu.op_class::SimdFloatCmp                   0      0.00%     29.41% # Class of executed instruction
system.cpu.op_class::SimdFloatCvt                   0      0.00%     29.41% # Class of executed instruction
system.cpu.op_class::SimdFloatDiv                   0      0.00%     29.41% # Class of executed instruction
system.cpu.op_class::SimdFloatMisc                  0      0.00%     29.41% # Class of executed instruction
system.cpu.op_class::SimdFloatMult                  4     23.53%     52.94% # Class of executed instruction
system.cpu.op_class::SimdFloatMultAcc               0      0.00%     52.94% # Class of executed instruction
system.cpu.op_class::SimdFloatSqrt                  0      0.00%     52.94% # Class of executed instruction
system.cpu.op_class::SimdReduceAdd                  0      0.00%     52.94% # Class of executed instruction
system.cpu.op_class::SimdReduceAlu                  0      0.00%     52.94% # Class of executed instruction
system.cpu.op_class::SimdReduceCmp                  0      0.00%     52.94% # Class of executed instruction
system.cpu.op_class::SimdFloatReduceAdd             0      0.00%     52.94% # Class of executed instruction
system.cpu.op_class::SimdFloatReduceCmp             0      0.00%     52.94% # Class of executed instruction
system.cpu.op_class::SimdAes                        0      0.00%     52.94% # Class of executed instruction
system.cpu.op_class::SimdAesMix                     0      0.00%     52.94% # Class of executed instruction
system.cpu.op_class::SimdSha1Hash                   0      0.00%     52.94% # Class of executed instruction
system.cpu.op_class::SimdSha1Hash2                  0      0.00%     52.94% # Class of executed instruction
system.cpu.op_class::SimdSha256Hash                 0      0.00%     52.94% # Class of executed instruction
system.cpu.op_class::SimdSha256Hash2                0      0.00%     52.94% # Class of executed instruction
system.cpu.op_class::SimdShaSigma2                  0      0.00%     52.94% # Class of executed instruction
system.cpu.op_class::SimdShaSigma3                  0      0.00%     52.94% # Class of executed instruction
system.cpu.op_class::SimdPredAlu                    0      0.00%     52.94% # Class of executed instruction
system.cpu.op_class::MemRead                        0      0.00%     52.94% # Class of executed instruction
system.cpu.op_class::MemWrite                       0      0.00%     52.94% # Class of executed instruction
system.cpu.op_class::FloatMemRead                   8     47.06%    100.00% # Class of executed instruction
system.cpu.op_class::FloatMemWrite                  0      0.00%    100.00% # Class of executed instruction
system.cpu.op_class::IprAccess                      0      0.00%    100.00% # Class of executed instruction
system.cpu.op_class::InstPrefetch                   0      0.00%    100.00% # Class of executed instruction
system.cpu.op_class::total                         17                       # Class of executed instruction
system.cpu.workload.numSyscalls                     5                       # Number of system calls
system.membus.snoop_filter.hit_multi_requests            0                       # Number of requests hitting in the snoop filter with multiple (>1) holders of the requested data.
system.membus.snoop_filter.hit_multi_snoops            0                       # Number of snoops hitting in the snoop filter with multiple (>1) holders of the requested data.
system.membus.snoop_filter.hit_single_requests        90645                       # Number of requests hitting in the snoop filter with a single holder of the requested data.
system.membus.snoop_filter.hit_single_snoops            0                       # Number of snoops hitting in the snoop filter with a single holder of the requested data.
system.membus.snoop_filter.tot_requests        186117                       # Total number of requests made to the snoop filter.
system.membus.snoop_filter.tot_snoops               0                       # Total number of snoops made to the snoop filter.
system.switch_cpus.branchPred.BTBCorrect            0                       # Number of correct BTB predictions (this stat may not work properly.
system.switch_cpus.branchPred.BTBHitPct      0.000000                       # BTB Hit Percentage
system.switch_cpus.branchPred.BTBHits               0                       # Number of BTB hits
system.switch_cpus.branchPred.BTBLookups       132862                       # Number of BTB lookups
system.switch_cpus.branchPred.RASInCorrect           23                       # Number of incorrect RAS predictions.
system.switch_cpus.branchPred.condIncorrect         6466                       # Number of conditional branches incorrect
system.switch_cpus.branchPred.condPredicted       146717                       # Number of conditional branches predicted
system.switch_cpus.branchPred.indirectHits        70494                       # Number of indirect target hits.
system.switch_cpus.branchPred.indirectLookups       132862                       # Number of indirect predictor lookups.
system.switch_cpus.branchPred.indirectMisses        62368                       # Number of indirect misses.
system.switch_cpus.branchPred.lookups          177963                       # Number of BP lookups
system.switch_cpus.branchPred.usedRAS           17900                       # Number of times the RAS was used to get a target.
system.switch_cpus.branchPredindirectMispredicted         4054                       # Number of mispredicted indirect branches.
system.switch_cpus.cc_regfile_reads            717490                       # number of cc regfile reads
system.switch_cpus.cc_regfile_writes           611052                       # number of cc regfile writes
system.switch_cpus.commit.amos                      0                       # Number of atomic instructions committed
system.switch_cpus.commit.branchMispredicts         6595                       # The number of times a branch was mispredicted
system.switch_cpus.commit.branches             106288                       # Number of branches committed
system.switch_cpus.commit.bw_lim_events       1529865                       # number cycles where commit BW limit reached
system.switch_cpus.commit.commitNonSpecStalls          405                       # The number of times commit has been forced to stall to communicate backwards
system.switch_cpus.commit.commitSquashedInsts       785708                       # The number of squashed insts skipped by commit
system.switch_cpus.commit.committedInsts     10000001                       # Number of instructions committed
system.switch_cpus.commit.committedOps       22374656                       # Number of ops (including micro ops) committed
system.switch_cpus.commit.committed_per_cycle::samples     15959577                       # Number of insts commited each cycle
system.switch_cpus.commit.committed_per_cycle::mean     1.401958                       # Number of insts commited each cycle
system.switch_cpus.commit.committed_per_cycle::stdev     2.625900                       # Number of insts commited each cycle
system.switch_cpus.commit.committed_per_cycle::underflows            0      0.00%      0.00% # Number of insts commited each cycle
system.switch_cpus.commit.committed_per_cycle::0     11235196     70.40%     70.40% # Number of insts commited each cycle
system.switch_cpus.commit.committed_per_cycle::1       726251      4.55%     74.95% # Number of insts commited each cycle
system.switch_cpus.commit.committed_per_cycle::2       843503      5.29%     80.23% # Number of insts commited each cycle
system.switch_cpus.commit.committed_per_cycle::3       283157      1.77%     82.01% # Number of insts commited each cycle
system.switch_cpus.commit.committed_per_cycle::4       555757      3.48%     85.49% # Number of insts commited each cycle
system.switch_cpus.commit.committed_per_cycle::5       259486      1.63%     87.12% # Number of insts commited each cycle
system.switch_cpus.commit.committed_per_cycle::6       331984      2.08%     89.20% # Number of insts commited each cycle
system.switch_cpus.commit.committed_per_cycle::7       194378      1.22%     90.41% # Number of insts commited each cycle
system.switch_cpus.commit.committed_per_cycle::8      1529865      9.59%    100.00% # Number of insts commited each cycle
system.switch_cpus.commit.committed_per_cycle::overflows            0      0.00%    100.00% # Number of insts commited each cycle
system.switch_cpus.commit.committed_per_cycle::min_value            0                       # Number of insts commited each cycle
system.switch_cpus.commit.committed_per_cycle::max_value            8                       # Number of insts commited each cycle
system.switch_cpus.commit.committed_per_cycle::total     15959577                       # Number of insts commited each cycle
system.switch_cpus.commit.fp_insts           20559192                       # Number of committed floating point instructions.
system.switch_cpus.commit.function_calls         8242                       # Number of function calls committed.
system.switch_cpus.commit.int_insts          10716167                       # Number of committed integer instructions.
system.switch_cpus.commit.loads               7506752                       # Number of loads committed
system.switch_cpus.commit.membars                   0                       # Number of memory barriers committed
system.switch_cpus.commit.op_class_0::No_OpClass         3248      0.01%      0.01% # Class of committed instruction
system.switch_cpus.commit.op_class_0::IntAlu      3440241     15.38%     15.39% # Class of committed instruction
system.switch_cpus.commit.op_class_0::IntMult          647      0.00%     15.39% # Class of committed instruction
system.switch_cpus.commit.op_class_0::IntDiv          133      0.00%     15.39% # Class of committed instruction
system.switch_cpus.commit.op_class_0::FloatAdd          604      0.00%     15.40% # Class of committed instruction
system.switch_cpus.commit.op_class_0::FloatCmp            0      0.00%     15.40% # Class of committed instruction
system.switch_cpus.commit.op_class_0::FloatCvt            0      0.00%     15.40% # Class of committed instruction
system.switch_cpus.commit.op_class_0::FloatMult            0      0.00%     15.40% # Class of committed instruction
system.switch_cpus.commit.op_class_0::FloatMultAcc            0      0.00%     15.40% # Class of committed instruction
system.switch_cpus.commit.op_class_0::FloatDiv            0      0.00%     15.40% # Class of committed instruction
system.switch_cpus.commit.op_class_0::FloatMisc            0      0.00%     15.40% # Class of committed instruction
system.switch_cpus.commit.op_class_0::FloatSqrt            0      0.00%     15.40% # Class of committed instruction
system.switch_cpus.commit.op_class_0::SimdAdd          746      0.00%     15.40% # Class of committed instruction
system.switch_cpus.commit.op_class_0::SimdAddAcc            0      0.00%     15.40% # Class of committed instruction
system.switch_cpus.commit.op_class_0::SimdAlu        55789      0.25%     15.65% # Class of committed instruction
system.switch_cpus.commit.op_class_0::SimdCmp            0      0.00%     15.65% # Class of committed instruction
system.switch_cpus.commit.op_class_0::SimdCvt         4810      0.02%     15.67% # Class of committed instruction
system.switch_cpus.commit.op_class_0::SimdMisc         4991      0.02%     15.69% # Class of committed instruction
system.switch_cpus.commit.op_class_0::SimdMult            0      0.00%     15.69% # Class of committed instruction
system.switch_cpus.commit.op_class_0::SimdMultAcc            0      0.00%     15.69% # Class of committed instruction
system.switch_cpus.commit.op_class_0::SimdShift           32      0.00%     15.69% # Class of committed instruction
system.switch_cpus.commit.op_class_0::SimdShiftAcc            0      0.00%     15.69% # Class of committed instruction
system.switch_cpus.commit.op_class_0::SimdDiv            0      0.00%     15.69% # Class of committed instruction
system.switch_cpus.commit.op_class_0::SimdSqrt            0      0.00%     15.69% # Class of committed instruction
system.switch_cpus.commit.op_class_0::SimdFloatAdd      5262290     23.52%     39.21% # Class of committed instruction
system.switch_cpus.commit.op_class_0::SimdFloatAlu            0      0.00%     39.21% # Class of committed instruction
system.switch_cpus.commit.op_class_0::SimdFloatCmp            0      0.00%     39.21% # Class of committed instruction
system.switch_cpus.commit.op_class_0::SimdFloatCvt            0      0.00%     39.21% # Class of committed instruction
system.switch_cpus.commit.op_class_0::SimdFloatDiv        10955      0.05%     39.26% # Class of committed instruction
system.switch_cpus.commit.op_class_0::SimdFloatMisc            0      0.00%     39.26% # Class of committed instruction
system.switch_cpus.commit.op_class_0::SimdFloatMult      3855430     17.23%     56.49% # Class of committed instruction
system.switch_cpus.commit.op_class_0::SimdFloatMultAcc            0      0.00%     56.49% # Class of committed instruction
system.switch_cpus.commit.op_class_0::SimdFloatSqrt            0      0.00%     56.49% # Class of committed instruction
system.switch_cpus.commit.op_class_0::SimdReduceAdd            0      0.00%     56.49% # Class of committed instruction
system.switch_cpus.commit.op_class_0::SimdReduceAlu            0      0.00%     56.49% # Class of committed instruction
system.switch_cpus.commit.op_class_0::SimdReduceCmp            0      0.00%     56.49% # Class of committed instruction
system.switch_cpus.commit.op_class_0::SimdFloatReduceAdd            0      0.00%     56.49% # Class of committed instruction
system.switch_cpus.commit.op_class_0::SimdFloatReduceCmp            0      0.00%     56.49% # Class of committed instruction
system.switch_cpus.commit.op_class_0::SimdAes            0      0.00%     56.49% # Class of committed instruction
system.switch_cpus.commit.op_class_0::SimdAesMix            0      0.00%     56.49% # Class of committed instruction
system.switch_cpus.commit.op_class_0::SimdSha1Hash            0      0.00%     56.49% # Class of committed instruction
system.switch_cpus.commit.op_class_0::SimdSha1Hash2            0      0.00%     56.49% # Class of committed instruction
system.switch_cpus.commit.op_class_0::SimdSha256Hash            0      0.00%     56.49% # Class of committed instruction
system.switch_cpus.commit.op_class_0::SimdSha256Hash2            0      0.00%     56.49% # Class of committed instruction
system.switch_cpus.commit.op_class_0::SimdShaSigma2            0      0.00%     56.49% # Class of committed instruction
system.switch_cpus.commit.op_class_0::SimdShaSigma3            0      0.00%     56.49% # Class of committed instruction
system.switch_cpus.commit.op_class_0::SimdPredAlu            0      0.00%     56.49% # Class of committed instruction
system.switch_cpus.commit.op_class_0::MemRead       756767      3.38%     59.87% # Class of committed instruction
system.switch_cpus.commit.op_class_0::MemWrite        77584      0.35%     60.22% # Class of committed instruction
system.switch_cpus.commit.op_class_0::FloatMemRead      6749985     30.17%     90.39% # Class of committed instruction
system.switch_cpus.commit.op_class_0::FloatMemWrite      2150404      9.61%    100.00% # Class of committed instruction
system.switch_cpus.commit.op_class_0::IprAccess            0      0.00%    100.00% # Class of committed instruction
system.switch_cpus.commit.op_class_0::InstPrefetch            0      0.00%    100.00% # Class of committed instruction
system.switch_cpus.commit.op_class_0::total     22374656                       # Class of committed instruction
system.switch_cpus.commit.refs                9734740                       # Number of memory references committed
system.switch_cpus.commit.swp_count                 0                       # Number of s/w prefetches committed
system.switch_cpus.commit.vec_insts                 0                       # Number of committed Vector instructions.
system.switch_cpus.committedInsts            10000001                       # Number of Instructions Simulated
system.switch_cpus.committedOps              22374656                       # Number of Ops (including micro ops) Simulated
system.switch_cpus.cpi                       1.618425                       # CPI: Cycles Per Instruction
system.switch_cpus.cpi_total                 1.618425                       # CPI: Total CPI of All Threads
system.switch_cpus.decode.BlockedCycles      12068372                       # Number of cycles decode is blocked
system.switch_cpus.decode.DecodedInsts       23435128                       # Number of instructions handled by decode
system.switch_cpus.decode.IdleCycles           829485                       # Number of cycles decode is idle
system.switch_cpus.decode.RunCycles           2531495                       # Number of cycles decode is running
system.switch_cpus.decode.SquashCycles          13196                       # Number of cycles decode is squashing
system.switch_cpus.decode.UnblockCycles        622988                       # Number of cycles decode is unblocking
system.switch_cpus.dtb.rdAccesses             7694235                       # TLB accesses on read requests
system.switch_cpus.dtb.rdMisses                  1861                       # TLB misses on read requests
system.switch_cpus.dtb.wrAccesses             2377117                       # TLB accesses on write requests
system.switch_cpus.dtb.wrMisses                   713                       # TLB misses on write requests
system.switch_cpus.fetch.Branches              177963                       # Number of branches that fetch encountered
system.switch_cpus.fetch.CacheLines           1122503                       # Number of cache lines fetched
system.switch_cpus.fetch.Cycles              14850990                       # Number of cycles fetch has run and was not squashing or blocked
system.switch_cpus.fetch.IcacheSquashes          2135                       # Number of outstanding Icache misses that were squashed
system.switch_cpus.fetch.IcacheWaitRetryStallCycles           62                       # Number of stall cycles due to full MSHR
system.switch_cpus.fetch.Insts               10743791                       # Number of instructions fetch has processed
system.switch_cpus.fetch.MiscStallCycles          174                       # Number of cycles fetch has spent waiting on interrupts, or bad addresses, or out of MSHRs
system.switch_cpus.fetch.PendingTrapStallCycles          898                       # Number of stall cycles due to pending traps
system.switch_cpus.fetch.SquashCycles           26392                       # Number of cycles fetch has spent squashing
system.switch_cpus.fetch.branchRate          0.010996                       # Number of branch fetches per cycle
system.switch_cpus.fetch.icacheStallCycles      1200553                       # Number of cycles fetch is stalled on an Icache miss
system.switch_cpus.fetch.predictedBranches        88394                       # Number of branches that fetch has predicted taken
system.switch_cpus.fetch.rate                0.663842                       # Number of inst fetches per cycle
system.switch_cpus.fetch.rateDist::samples     16065873                       # Number of instructions fetched each cycle (Total)
system.switch_cpus.fetch.rateDist::mean      1.476366                       # Number of instructions fetched each cycle (Total)
system.switch_cpus.fetch.rateDist::stdev     2.954260                       # Number of instructions fetched each cycle (Total)
system.switch_cpus.fetch.rateDist::underflows            0      0.00%      0.00% # Number of instructions fetched each cycle (Total)
system.switch_cpus.fetch.rateDist::0         12518801     77.92%     77.92% # Number of instructions fetched each cycle (Total)
system.switch_cpus.fetch.rateDist::1           109141      0.68%     78.60% # Number of instructions fetched each cycle (Total)
system.switch_cpus.fetch.rateDist::2           212407      1.32%     79.92% # Number of instructions fetched each cycle (Total)
system.switch_cpus.fetch.rateDist::3           175491      1.09%     81.02% # Number of instructions fetched each cycle (Total)
system.switch_cpus.fetch.rateDist::4           189381      1.18%     82.19% # Number of instructions fetched each cycle (Total)
system.switch_cpus.fetch.rateDist::5           149475      0.93%     83.12% # Number of instructions fetched each cycle (Total)
system.switch_cpus.fetch.rateDist::6           224780      1.40%     84.52% # Number of instructions fetched each cycle (Total)
system.switch_cpus.fetch.rateDist::7            86082      0.54%     85.06% # Number of instructions fetched each cycle (Total)
system.switch_cpus.fetch.rateDist::8          2400315     14.94%    100.00% # Number of instructions fetched each cycle (Total)
system.switch_cpus.fetch.rateDist::overflows            0      0.00%    100.00% # Number of instructions fetched each cycle (Total)
system.switch_cpus.fetch.rateDist::min_value            0                       # Number of instructions fetched each cycle (Total)
system.switch_cpus.fetch.rateDist::max_value            8                       # Number of instructions fetched each cycle (Total)
system.switch_cpus.fetch.rateDist::total     16065873                       # Number of instructions fetched each cycle (Total)
system.switch_cpus.fp_regfile_reads          34697727                       # number of floating regfile reads
system.switch_cpus.fp_regfile_writes         18490859                       # number of floating regfile writes
system.switch_cpus.idleCycles                  118383                       # Total number of cycles that the CPU has spent unscheduled due to idling
system.switch_cpus.iew.branchMispredicts         8853                       # Number of branch mispredicts detected at execute
system.switch_cpus.iew.exec_branches           138163                       # Number of branches executed
system.switch_cpus.iew.exec_nop                     0                       # number of nop insts executed
system.switch_cpus.iew.exec_rate             1.438054                       # Inst execution rate
system.switch_cpus.iew.exec_refs             10230840                       # number of memory reference insts executed
system.switch_cpus.iew.exec_stores            2377117                       # Number of stores executed
system.switch_cpus.iew.exec_swp                     0                       # number of swp insts executed
system.switch_cpus.iew.iewBlockCycles          364538                       # Number of cycles IEW is blocking
system.switch_cpus.iew.iewDispLoadInsts       7709025                       # Number of dispatched load instructions
system.switch_cpus.iew.iewDispNonSpecInsts           11                       # Number of dispatched non-speculative instructions
system.switch_cpus.iew.iewDispSquashedInsts          414                       # Number of squashed instructions skipped by dispatch
system.switch_cpus.iew.iewDispStoreInsts      2445705                       # Number of dispatched store instructions
system.switch_cpus.iew.iewDispatchedInsts     23278101                       # Number of instructions dispatched to IQ
system.switch_cpus.iew.iewExecLoadInsts       7853723                       # Number of load instructions executed
system.switch_cpus.iew.iewExecSquashedInsts        18543                       # Number of squashed instructions skipped in execute
system.switch_cpus.iew.iewExecutedInsts      23273841                       # Number of executed instructions
system.switch_cpus.iew.iewIQFullEvents           3395                       # Number of times the IQ has become full, causing a stall
system.switch_cpus.iew.iewIdleCycles                0                       # Number of cycles IEW is idle
system.switch_cpus.iew.iewLSQFullEvents       4083224                       # Number of times the LSQ has become full, causing a stall
system.switch_cpus.iew.iewSquashCycles          13196                       # Number of cycles IEW is squashing
system.switch_cpus.iew.iewUnblockCycles       4092273                       # Number of cycles IEW is unblocking
system.switch_cpus.iew.lsq.thread0.blockedLoads            0                       # Number of blocked loads due to partial load-store forwarding
system.switch_cpus.iew.lsq.thread0.cacheBlocked        31581                       # Number of times an access to memory failed due to the cache being blocked
system.switch_cpus.iew.lsq.thread0.forwLoads       558237                       # Number of loads that had data forwarded from stores
system.switch_cpus.iew.lsq.thread0.ignoredResponses          107                       # Number of memory responses ignored because the instruction is squashed
system.switch_cpus.iew.lsq.thread0.invAddrLoads            0                       # Number of loads ignored due to an invalid address
system.switch_cpus.iew.lsq.thread0.invAddrSwpfs            0                       # Number of software prefetches ignored due to an invalid address
system.switch_cpus.iew.lsq.thread0.memOrderViolation          310                       # Number of memory ordering violations
system.switch_cpus.iew.lsq.thread0.rescheduledLoads            0                       # Number of loads that were rescheduled
system.switch_cpus.iew.lsq.thread0.squashedLoads       202248                       # Number of loads squashed
system.switch_cpus.iew.lsq.thread0.squashedStores       217713                       # Number of stores squashed
system.switch_cpus.iew.memOrderViolationEvents          310                       # Number of memory order violations
system.switch_cpus.iew.predictedNotTakenIncorrect         6951                       # Number of branches that were predicted not taken incorrectly
system.switch_cpus.iew.predictedTakenIncorrect         1902                       # Number of branches that were predicted taken incorrectly
system.switch_cpus.iew.wb_consumers          28937796                       # num instructions consuming a value
system.switch_cpus.iew.wb_count              23044596                       # cumulative count of insts written-back
system.switch_cpus.iew.wb_fanout             0.606246                       # average fanout of values written-back
system.switch_cpus.iew.wb_producers          17543411                       # num instructions producing a value
system.switch_cpus.iew.wb_rate               1.423890                       # insts written-back per cycle
system.switch_cpus.iew.wb_sent               23100833                       # cumulative count of insts sent to commit
system.switch_cpus.int_regfile_reads         21994471                       # number of integer regfile reads
system.switch_cpus.int_regfile_writes         2038469                       # number of integer regfile writes
system.switch_cpus.ipc                       0.617885                       # IPC: Instructions Per Cycle
system.switch_cpus.ipc_total                 0.617885                       # IPC: Total IPC of All Threads
system.switch_cpus.iq.FU_type_0::No_OpClass        55372      0.24%      0.24% # Type of FU issued
system.switch_cpus.iq.FU_type_0::IntAlu       3798599     16.31%     16.55% # Type of FU issued
system.switch_cpus.iq.FU_type_0::IntMult          652      0.00%     16.55% # Type of FU issued
system.switch_cpus.iq.FU_type_0::IntDiv           140      0.00%     16.55% # Type of FU issued
system.switch_cpus.iq.FU_type_0::FloatAdd         3662      0.02%     16.57% # Type of FU issued
system.switch_cpus.iq.FU_type_0::FloatCmp            0      0.00%     16.57% # Type of FU issued
system.switch_cpus.iq.FU_type_0::FloatCvt            0      0.00%     16.57% # Type of FU issued
system.switch_cpus.iq.FU_type_0::FloatMult            0      0.00%     16.57% # Type of FU issued
system.switch_cpus.iq.FU_type_0::FloatMultAcc            0      0.00%     16.57% # Type of FU issued
system.switch_cpus.iq.FU_type_0::FloatDiv            0      0.00%     16.57% # Type of FU issued
system.switch_cpus.iq.FU_type_0::FloatMisc            0      0.00%     16.57% # Type of FU issued
system.switch_cpus.iq.FU_type_0::FloatSqrt            0      0.00%     16.57% # Type of FU issued
system.switch_cpus.iq.FU_type_0::SimdAdd          784      0.00%     16.57% # Type of FU issued
system.switch_cpus.iq.FU_type_0::SimdAddAcc            0      0.00%     16.57% # Type of FU issued
system.switch_cpus.iq.FU_type_0::SimdAlu        56977      0.24%     16.81% # Type of FU issued
system.switch_cpus.iq.FU_type_0::SimdCmp            0      0.00%     16.81% # Type of FU issued
system.switch_cpus.iq.FU_type_0::SimdCvt         4977      0.02%     16.83% # Type of FU issued
system.switch_cpus.iq.FU_type_0::SimdMisc         5109      0.02%     16.86% # Type of FU issued
system.switch_cpus.iq.FU_type_0::SimdMult            0      0.00%     16.86% # Type of FU issued
system.switch_cpus.iq.FU_type_0::SimdMultAcc            0      0.00%     16.86% # Type of FU issued
system.switch_cpus.iq.FU_type_0::SimdShift           71      0.00%     16.86% # Type of FU issued
system.switch_cpus.iq.FU_type_0::SimdShiftAcc            0      0.00%     16.86% # Type of FU issued
system.switch_cpus.iq.FU_type_0::SimdDiv            0      0.00%     16.86% # Type of FU issued
system.switch_cpus.iq.FU_type_0::SimdSqrt            0      0.00%     16.86% # Type of FU issued
system.switch_cpus.iq.FU_type_0::SimdFloatAdd      5262545     22.59%     39.45% # Type of FU issued
system.switch_cpus.iq.FU_type_0::SimdFloatAlu            0      0.00%     39.45% # Type of FU issued
system.switch_cpus.iq.FU_type_0::SimdFloatCmp            0      0.00%     39.45% # Type of FU issued
system.switch_cpus.iq.FU_type_0::SimdFloatCvt            0      0.00%     39.45% # Type of FU issued
system.switch_cpus.iq.FU_type_0::SimdFloatDiv        10956      0.05%     39.50% # Type of FU issued
system.switch_cpus.iq.FU_type_0::SimdFloatMisc            0      0.00%     39.50% # Type of FU issued
system.switch_cpus.iq.FU_type_0::SimdFloatMult      3855535     16.55%     56.05% # Type of FU issued
system.switch_cpus.iq.FU_type_0::SimdFloatMultAcc            0      0.00%     56.05% # Type of FU issued
system.switch_cpus.iq.FU_type_0::SimdFloatSqrt            0      0.00%     56.05% # Type of FU issued
system.switch_cpus.iq.FU_type_0::SimdReduceAdd            0      0.00%     56.05% # Type of FU issued
system.switch_cpus.iq.FU_type_0::SimdReduceAlu            0      0.00%     56.05% # Type of FU issued
system.switch_cpus.iq.FU_type_0::SimdReduceCmp            0      0.00%     56.05% # Type of FU issued
system.switch_cpus.iq.FU_type_0::SimdFloatReduceAdd            0      0.00%     56.05% # Type of FU issued
system.switch_cpus.iq.FU_type_0::SimdFloatReduceCmp            0      0.00%     56.05% # Type of FU issued
system.switch_cpus.iq.FU_type_0::SimdAes            0      0.00%     56.05% # Type of FU issued
system.switch_cpus.iq.FU_type_0::SimdAesMix            0      0.00%     56.05% # Type of FU issued
system.switch_cpus.iq.FU_type_0::SimdSha1Hash            0      0.00%     56.05% # Type of FU issued
system.switch_cpus.iq.FU_type_0::SimdSha1Hash2            0      0.00%     56.05% # Type of FU issued
system.switch_cpus.iq.FU_type_0::SimdSha256Hash            0      0.00%     56.05% # Type of FU issued
system.switch_cpus.iq.FU_type_0::SimdSha256Hash2            0      0.00%     56.05% # Type of FU issued
system.switch_cpus.iq.FU_type_0::SimdShaSigma2            0      0.00%     56.05% # Type of FU issued
system.switch_cpus.iq.FU_type_0::SimdShaSigma3            0      0.00%     56.05% # Type of FU issued
system.switch_cpus.iq.FU_type_0::SimdPredAlu            0      0.00%     56.05% # Type of FU issued
system.switch_cpus.iq.FU_type_0::MemRead       901407      3.87%     59.92% # Type of FU issued
system.switch_cpus.iq.FU_type_0::MemWrite       131393      0.56%     60.48% # Type of FU issued
system.switch_cpus.iq.FU_type_0::FloatMemRead      6957196     29.87%     90.35% # Type of FU issued
system.switch_cpus.iq.FU_type_0::FloatMemWrite      2247010      9.65%    100.00% # Type of FU issued
system.switch_cpus.iq.FU_type_0::IprAccess            0      0.00%    100.00% # Type of FU issued
system.switch_cpus.iq.FU_type_0::InstPrefetch            0      0.00%    100.00% # Type of FU issued
system.switch_cpus.iq.FU_type_0::total       23292385                       # Type of FU issued
system.switch_cpus.iq.fp_alu_accesses        21780120                       # Number of floating point alu accesses
system.switch_cpus.iq.fp_inst_queue_reads     42648703                       # Number of floating instruction queue reads
system.switch_cpus.iq.fp_inst_queue_wakeup_accesses     20739820                       # Number of floating instruction queue wakeup accesses
system.switch_cpus.iq.fp_inst_queue_writes     21030707                       # Number of floating instruction queue writes
system.switch_cpus.iq.fu_busy_cnt             1027615                       # FU busy when requested
system.switch_cpus.iq.fu_busy_rate           0.044118                       # FU busy rate (busy events/executed inst)
system.switch_cpus.iq.fu_full::No_OpClass            0      0.00%      0.00% # attempts to use FU when none available
system.switch_cpus.iq.fu_full::IntAlu           13101      1.27%      1.27% # attempts to use FU when none available
system.switch_cpus.iq.fu_full::IntMult              0      0.00%      1.27% # attempts to use FU when none available
system.switch_cpus.iq.fu_full::IntDiv               0      0.00%      1.27% # attempts to use FU when none available
system.switch_cpus.iq.fu_full::FloatAdd             0      0.00%      1.27% # attempts to use FU when none available
system.switch_cpus.iq.fu_full::FloatCmp             0      0.00%      1.27% # attempts to use FU when none available
system.switch_cpus.iq.fu_full::FloatCvt             0      0.00%      1.27% # attempts to use FU when none available
system.switch_cpus.iq.fu_full::FloatMult            0      0.00%      1.27% # attempts to use FU when none available
system.switch_cpus.iq.fu_full::FloatMultAcc            0      0.00%      1.27% # attempts to use FU when none available
system.switch_cpus.iq.fu_full::FloatDiv             0      0.00%      1.27% # attempts to use FU when none available
system.switch_cpus.iq.fu_full::FloatMisc            0      0.00%      1.27% # attempts to use FU when none available
system.switch_cpus.iq.fu_full::FloatSqrt            0      0.00%      1.27% # attempts to use FU when none available
system.switch_cpus.iq.fu_full::SimdAdd              0      0.00%      1.27% # attempts to use FU when none available
system.switch_cpus.iq.fu_full::SimdAddAcc            0      0.00%      1.27% # attempts to use FU when none available
system.switch_cpus.iq.fu_full::SimdAlu            717      0.07%      1.34% # attempts to use FU when none available
system.switch_cpus.iq.fu_full::SimdCmp              0      0.00%      1.34% # attempts to use FU when none available
system.switch_cpus.iq.fu_full::SimdCvt              0      0.00%      1.34% # attempts to use FU when none available
system.switch_cpus.iq.fu_full::SimdMisc           363      0.04%      1.38% # attempts to use FU when none available
system.switch_cpus.iq.fu_full::SimdMult             0      0.00%      1.38% # attempts to use FU when none available
system.switch_cpus.iq.fu_full::SimdMultAcc            0      0.00%      1.38% # attempts to use FU when none available
system.switch_cpus.iq.fu_full::SimdShift            0      0.00%      1.38% # attempts to use FU when none available
system.switch_cpus.iq.fu_full::SimdShiftAcc            0      0.00%      1.38% # attempts to use FU when none available
system.switch_cpus.iq.fu_full::SimdDiv              0      0.00%      1.38% # attempts to use FU when none available
system.switch_cpus.iq.fu_full::SimdSqrt             0      0.00%      1.38% # attempts to use FU when none available
system.switch_cpus.iq.fu_full::SimdFloatAdd       117409     11.43%     12.81% # attempts to use FU when none available
system.switch_cpus.iq.fu_full::SimdFloatAlu            0      0.00%     12.81% # attempts to use FU when none available
system.switch_cpus.iq.fu_full::SimdFloatCmp            0      0.00%     12.81% # attempts to use FU when none available
system.switch_cpus.iq.fu_full::SimdFloatCvt            0      0.00%     12.81% # attempts to use FU when none available
system.switch_cpus.iq.fu_full::SimdFloatDiv            0      0.00%     12.81% # attempts to use FU when none available
system.switch_cpus.iq.fu_full::SimdFloatMisc            0      0.00%     12.81% # attempts to use FU when none available
system.switch_cpus.iq.fu_full::SimdFloatMult       251930     24.52%     37.32% # attempts to use FU when none available
system.switch_cpus.iq.fu_full::SimdFloatMultAcc            0      0.00%     37.32% # attempts to use FU when none available
system.switch_cpus.iq.fu_full::SimdFloatSqrt            0      0.00%     37.32% # attempts to use FU when none available
system.switch_cpus.iq.fu_full::SimdReduceAdd            0      0.00%     37.32% # attempts to use FU when none available
system.switch_cpus.iq.fu_full::SimdReduceAlu            0      0.00%     37.32% # attempts to use FU when none available
system.switch_cpus.iq.fu_full::SimdReduceCmp            0      0.00%     37.32% # attempts to use FU when none available
system.switch_cpus.iq.fu_full::SimdFloatReduceAdd            0      0.00%     37.32% # attempts to use FU when none available
system.switch_cpus.iq.fu_full::SimdFloatReduceCmp            0      0.00%     37.32% # attempts to use FU when none available
system.switch_cpus.iq.fu_full::SimdAes              0      0.00%     37.32% # attempts to use FU when none available
system.switch_cpus.iq.fu_full::SimdAesMix            0      0.00%     37.32% # attempts to use FU when none available
system.switch_cpus.iq.fu_full::SimdSha1Hash            0      0.00%     37.32% # attempts to use FU when none available
system.switch_cpus.iq.fu_full::SimdSha1Hash2            0      0.00%     37.32% # attempts to use FU when none available
system.switch_cpus.iq.fu_full::SimdSha256Hash            0      0.00%     37.32% # attempts to use FU when none available
system.switch_cpus.iq.fu_full::SimdSha256Hash2            0      0.00%     37.32% # attempts to use FU when none available
system.switch_cpus.iq.fu_full::SimdShaSigma2            0      0.00%     37.32% # attempts to use FU when none available
system.switch_cpus.iq.fu_full::SimdShaSigma3            0      0.00%     37.32% # attempts to use FU when none available
system.switch_cpus.iq.fu_full::SimdPredAlu            0      0.00%     37.32% # attempts to use FU when none available
system.switch_cpus.iq.fu_full::MemRead          87867      8.55%     45.87% # attempts to use FU when none available
system.switch_cpus.iq.fu_full::MemWrite         14607      1.42%     47.29% # attempts to use FU when none available
system.switch_cpus.iq.fu_full::FloatMemRead       486278     47.32%     94.61% # attempts to use FU when none available
system.switch_cpus.iq.fu_full::FloatMemWrite        55343      5.39%    100.00% # attempts to use FU when none available
system.switch_cpus.iq.fu_full::IprAccess            0      0.00%    100.00% # attempts to use FU when none available
system.switch_cpus.iq.fu_full::InstPrefetch            0      0.00%    100.00% # attempts to use FU when none available
system.switch_cpus.iq.int_alu_accesses        2484508                       # Number of integer alu accesses
system.switch_cpus.iq.int_inst_queue_reads     21033395                       # Number of integer instruction queue reads
system.switch_cpus.iq.int_inst_queue_wakeup_accesses      2304776                       # Number of integer instruction queue wakeup accesses
system.switch_cpus.iq.int_inst_queue_writes      3151092                       # Number of integer instruction queue writes
system.switch_cpus.iq.iqInstsAdded           23273268                       # Number of instructions added to the IQ (excludes non-spec)
system.switch_cpus.iq.iqInstsIssued          23292385                       # Number of instructions issued
system.switch_cpus.iq.iqNonSpecInstsAdded         4833                       # Number of non-speculative instructions added to the IQ
system.switch_cpus.iq.iqSquashedInstsExamined       903400                       # Number of squashed instructions iterated over during squash; mainly for profiling
system.switch_cpus.iq.iqSquashedInstsIssued         3841                       # Number of squashed instructions issued
system.switch_cpus.iq.iqSquashedNonSpecRemoved         4428                       # Number of squashed non-spec instructions that were removed
system.switch_cpus.iq.iqSquashedOperandsExamined       601845                       # Number of squashed operands that are examined and possibly removed from graph
system.switch_cpus.iq.issued_per_cycle::samples     16065873                       # Number of insts issued each cycle
system.switch_cpus.iq.issued_per_cycle::mean     1.449805                       # Number of insts issued each cycle
system.switch_cpus.iq.issued_per_cycle::stdev     2.382477                       # Number of insts issued each cycle
system.switch_cpus.iq.issued_per_cycle::underflows            0      0.00%      0.00% # Number of insts issued each cycle
system.switch_cpus.iq.issued_per_cycle::0     10595921     65.95%     65.95% # Number of insts issued each cycle
system.switch_cpus.iq.issued_per_cycle::1       716437      4.46%     70.41% # Number of insts issued each cycle
system.switch_cpus.iq.issued_per_cycle::2       741669      4.62%     75.03% # Number of insts issued each cycle
system.switch_cpus.iq.issued_per_cycle::3       648023      4.03%     79.06% # Number of insts issued each cycle
system.switch_cpus.iq.issued_per_cycle::4       896002      5.58%     84.64% # Number of insts issued each cycle
system.switch_cpus.iq.issued_per_cycle::5       713335      4.44%     89.08% # Number of insts issued each cycle
system.switch_cpus.iq.issued_per_cycle::6       780548      4.86%     93.94% # Number of insts issued each cycle
system.switch_cpus.iq.issued_per_cycle::7       476934      2.97%     96.91% # Number of insts issued each cycle
system.switch_cpus.iq.issued_per_cycle::8       497004      3.09%    100.00% # Number of insts issued each cycle
system.switch_cpus.iq.issued_per_cycle::overflows            0      0.00%    100.00% # Number of insts issued each cycle
system.switch_cpus.iq.issued_per_cycle::min_value            0                       # Number of insts issued each cycle
system.switch_cpus.iq.issued_per_cycle::max_value            8                       # Number of insts issued each cycle
system.switch_cpus.iq.issued_per_cycle::total     16065873                       # Number of insts issued each cycle
system.switch_cpus.iq.rate                   1.439200                       # Inst issue rate
system.switch_cpus.iq.vec_alu_accesses              0                       # Number of vector alu accesses
system.switch_cpus.iq.vec_inst_queue_reads            0                       # Number of vector instruction queue reads
system.switch_cpus.iq.vec_inst_queue_wakeup_accesses            0                       # Number of vector instruction queue wakeup accesses
system.switch_cpus.iq.vec_inst_queue_writes            0                       # Number of vector instruction queue writes
system.switch_cpus.itb.rdAccesses                   0                       # TLB accesses on read requests
system.switch_cpus.itb.rdMisses                     0                       # TLB misses on read requests
system.switch_cpus.itb.wrAccesses             1122657                       # TLB accesses on write requests
system.switch_cpus.itb.wrMisses                   232                       # TLB misses on write requests
system.switch_cpus.memDep0.conflictingLoads        23733                       # Number of conflicting loads.
system.switch_cpus.memDep0.conflictingStores       114196                       # Number of conflicting stores.
system.switch_cpus.memDep0.insertedLoads      7709025                       # Number of loads inserted to the mem dependence unit.
system.switch_cpus.memDep0.insertedStores      2445705                       # Number of stores inserted to the mem dependence unit.
system.switch_cpus.misc_regfile_reads        10738953                       # number of misc regfile reads
system.switch_cpus.misc_regfile_writes              1                       # number of misc regfile writes
system.switch_cpus.numCycles                 16184256                       # number of cpu cycles simulated
system.switch_cpus.numWorkItemsCompleted            0                       # number of work items this cpu completed
system.switch_cpus.numWorkItemsStarted              0                       # number of work items this cpu started
system.switch_cpus.rename.BlockCycles         4527068                       # Number of cycles rename is blocking
system.switch_cpus.rename.CommittedMaps      20443121                       # Number of HB maps that are committed
system.switch_cpus.rename.IQFullEvents         167513                       # Number of times rename has blocked due to IQ full
system.switch_cpus.rename.IdleCycles          1111971                       # Number of cycles rename is idle
system.switch_cpus.rename.LQFullEvents        2193439                       # Number of times rename has blocked due to LQ full
system.switch_cpus.rename.ROBFullEvents         18097                       # Number of times rename has blocked due to ROB full
system.switch_cpus.rename.RenameLookups      68428114                       # Number of register rename lookups that rename has made
system.switch_cpus.rename.RenamedInsts       23354664                       # Number of instructions processed by rename
system.switch_cpus.rename.RenamedOperands     21353482                       # Number of destination operands rename has renamed
system.switch_cpus.rename.RunCycles           2861965                       # Number of cycles rename is running
system.switch_cpus.rename.SQFullEvents        5136012                       # Number of times rename has blocked due to SQ full
system.switch_cpus.rename.SquashCycles          13196                       # Number of cycles rename is squashing
system.switch_cpus.rename.UnblockCycles       7551269                       # Number of cycles rename is unblocking
system.switch_cpus.rename.UndoneMaps           910314                       # Number of HB maps that are undone due to squashing
system.switch_cpus.rename.fp_rename_lookups     34764049                       # Number of floating rename lookups
system.switch_cpus.rename.int_rename_lookups     22117266                       # Number of integer rename lookups
system.switch_cpus.rename.serializeStallCycles           67                       # count of cycles rename stalled for serializing inst
system.switch_cpus.rename.serializingInsts           12                       # count of serializing insts renamed
system.switch_cpus.rename.skidInsts           3797662                       # count of insts added to the skid buffer
system.switch_cpus.rename.tempSerializingInsts           12                       # count of temporary serializing insts renamed
system.switch_cpus.rob.rob_reads             37506876                       # The number of ROB reads
system.switch_cpus.rob.rob_writes            46427342                       # The number of ROB writes
system.switch_cpus.timesIdled                    1365                       # Number of times that the entire CPU went into an idle state and unscheduled itself
system.tol2bus.snoop_filter.hit_multi_requests            1                       # Number of requests hitting in the snoop filter with multiple (>1) holders of the requested data.
system.tol2bus.snoop_filter.hit_multi_snoops            0                       # Number of snoops hitting in the snoop filter with multiple (>1) holders of the requested data.
system.tol2bus.snoop_filter.hit_single_requests       119230                       # Number of requests hitting in the snoop filter with a single holder of the requested data.
system.tol2bus.snoop_filter.hit_single_snoops        62590                       # Number of snoops hitting in the snoop filter with a single holder of the requested data.
system.tol2bus.snoop_filter.tot_requests       239997                       # Total number of requests made to the snoop filter.
system.tol2bus.snoop_filter.tot_snoops          62590                       # Total number of snoops made to the snoop filter.
system.membus.pwrStateResidencyTicks::UNDEFINED 371669187021500                       # Cumulative time (in ticks) in various power states
system.membus.trans_dist::ReadResp              66542                       # Transaction distribution
system.membus.trans_dist::WritebackDirty        29048                       # Transaction distribution
system.membus.trans_dist::CleanEvict            61597                       # Transaction distribution
system.membus.trans_dist::ReadExReq             28930                       # Transaction distribution
system.membus.trans_dist::ReadExResp            28930                       # Transaction distribution
system.membus.trans_dist::ReadSharedReq         66542                       # Transaction distribution
system.membus.pkt_count_system.l2.mem_side::system.mem_ctrls.port       281589                       # Packet count per connected master and slave (bytes)
system.membus.pkt_count_system.l2.mem_side::total       281589                       # Packet count per connected master and slave (bytes)
system.membus.pkt_count::total                 281589                       # Packet count per connected master and slave (bytes)
system.membus.pkt_size_system.l2.mem_side::system.mem_ctrls.port      7969280                       # Cumulative packet size per connected master and slave (bytes)
system.membus.pkt_size_system.l2.mem_side::total      7969280                       # Cumulative packet size per connected master and slave (bytes)
system.membus.pkt_size::total                 7969280                       # Cumulative packet size per connected master and slave (bytes)
system.membus.snoops                                0                       # Total snoops (count)
system.membus.snoopTraffic                          0                       # Total snoop traffic (bytes)
system.membus.snoop_fanout::samples             95472                       # Request fanout histogram
system.membus.snoop_fanout::mean                    0                       # Request fanout histogram
system.membus.snoop_fanout::stdev                   0                       # Request fanout histogram
system.membus.snoop_fanout::underflows              0      0.00%      0.00% # Request fanout histogram
system.membus.snoop_fanout::0                   95472    100.00%    100.00% # Request fanout histogram
system.membus.snoop_fanout::1                       0      0.00%    100.00% # Request fanout histogram
system.membus.snoop_fanout::overflows               0      0.00%    100.00% # Request fanout histogram
system.membus.snoop_fanout::min_value               0                       # Request fanout histogram
system.membus.snoop_fanout::max_value               0                       # Request fanout histogram
system.membus.snoop_fanout::total               95472                       # Request fanout histogram
system.membus.reqLayer2.occupancy           320898000                       # Layer occupancy (ticks)
system.membus.reqLayer2.utilization               4.0                       # Layer utilization (%)
system.membus.respLayer1.occupancy          528288500                       # Layer occupancy (ticks)
system.membus.respLayer1.utilization              6.5                       # Layer utilization (%)
system.switch_cpus.pwrStateResidencyTicks::OFF   8092139000                       # Cumulative time (in ticks) in various power states
system.switch_cpus.dtb.walker.pwrStateResidencyTicks::UNDEFINED 371669187021500                       # Cumulative time (in ticks) in various power states
system.switch_cpus.itb.walker.pwrStateResidencyTicks::UNDEFINED 371669187021500                       # Cumulative time (in ticks) in various power states
system.tol2bus.pwrStateResidencyTicks::UNDEFINED 371669187021500                       # Cumulative time (in ticks) in various power states
system.tol2bus.trans_dist::ReadResp             85110                       # Transaction distribution
system.tol2bus.trans_dist::WritebackDirty        78822                       # Transaction distribution
system.tol2bus.trans_dist::WritebackClean         1761                       # Transaction distribution
system.tol2bus.trans_dist::CleanEvict          151714                       # Transaction distribution
system.tol2bus.trans_dist::ReadExReq            35655                       # Transaction distribution
system.tol2bus.trans_dist::ReadExResp           35655                       # Transaction distribution
system.tol2bus.trans_dist::ReadCleanReq          2272                       # Transaction distribution
system.tol2bus.trans_dist::ReadSharedReq        82840                       # Transaction distribution
system.tol2bus.pkt_count_system.cpu.icache.mem_side::system.l2.cpu_side         6305                       # Packet count per connected master and slave (bytes)
system.tol2bus.pkt_count_system.cpu.dcache.mem_side::system.l2.cpu_side       354457                       # Packet count per connected master and slave (bytes)
system.tol2bus.pkt_count::total                360762                       # Packet count per connected master and slave (bytes)
system.tol2bus.pkt_size_system.cpu.icache.mem_side::system.l2.cpu_side       258112                       # Cumulative packet size per connected master and slave (bytes)
system.tol2bus.pkt_size_system.cpu.dcache.mem_side::system.l2.cpu_side     10769088                       # Cumulative packet size per connected master and slave (bytes)
system.tol2bus.pkt_size::total               11027200                       # Cumulative packet size per connected master and slave (bytes)
system.tol2bus.snoops                          113067                       # Total snoops (count)
system.tol2bus.snoopTraffic                   1859072                       # Total snoop traffic (bytes)
system.tol2bus.snoop_fanout::samples           233834                       # Request fanout histogram
system.tol2bus.snoop_fanout::mean            0.267673                       # Request fanout histogram
system.tol2bus.snoop_fanout::stdev           0.442747                       # Request fanout histogram
system.tol2bus.snoop_fanout::underflows             0      0.00%      0.00% # Request fanout histogram
system.tol2bus.snoop_fanout::0                 171243     73.23%     73.23% # Request fanout histogram
system.tol2bus.snoop_fanout::1                  62591     26.77%    100.00% # Request fanout histogram
system.tol2bus.snoop_fanout::2                      0      0.00%    100.00% # Request fanout histogram
system.tol2bus.snoop_fanout::3                      0      0.00%    100.00% # Request fanout histogram
system.tol2bus.snoop_fanout::4                      0      0.00%    100.00% # Request fanout histogram
system.tol2bus.snoop_fanout::overflows              0      0.00%    100.00% # Request fanout histogram
system.tol2bus.snoop_fanout::min_value              0                       # Request fanout histogram
system.tol2bus.snoop_fanout::max_value              1                       # Request fanout histogram
system.tol2bus.snoop_fanout::total             233834                       # Request fanout histogram
system.tol2bus.reqLayer0.occupancy          171530500                       # Layer occupancy (ticks)
system.tol2bus.reqLayer0.utilization              2.1                       # Layer utilization (%)
system.tol2bus.respLayer1.occupancy         177734498                       # Layer occupancy (ticks)
system.tol2bus.respLayer1.utilization             2.2                       # Layer utilization (%)
system.tol2bus.respLayer0.occupancy           3405998                       # Layer occupancy (ticks)
system.tol2bus.respLayer0.utilization             0.0                       # Layer utilization (%)
system.voltage_domain.voltage                       1                       # Voltage in Volts
system.clk_domain.clock                          1000                       # Clock period in ticks
system.l2.pwrStateResidencyTicks::UNDEFINED 371669187021500                       # Cumulative time (in ticks) in various power states
system.l2.demand_hits::.switch_cpus.inst          863                       # number of demand (read+write) hits
system.l2.demand_hits::.switch_cpus.data        24430                       # number of demand (read+write) hits
system.l2.demand_hits::total                    25293                       # number of demand (read+write) hits
system.l2.overall_hits::.switch_cpus.inst          863                       # number of overall hits
system.l2.overall_hits::.switch_cpus.data        24430                       # number of overall hits
system.l2.overall_hits::total                   25293                       # number of overall hits
system.l2.demand_misses::.cpu.inst                  2                       # number of demand (read+write) misses
system.l2.demand_misses::.cpu.data                  4                       # number of demand (read+write) misses
system.l2.demand_misses::.switch_cpus.inst         1407                       # number of demand (read+write) misses
system.l2.demand_misses::.switch_cpus.data        94061                       # number of demand (read+write) misses
system.l2.demand_misses::total                  95474                       # number of demand (read+write) misses
system.l2.overall_misses::.cpu.inst                 2                       # number of overall misses
system.l2.overall_misses::.cpu.data                 4                       # number of overall misses
system.l2.overall_misses::.switch_cpus.inst         1407                       # number of overall misses
system.l2.overall_misses::.switch_cpus.data        94061                       # number of overall misses
system.l2.overall_misses::total                 95474                       # number of overall misses
system.l2.demand_miss_latency::.switch_cpus.inst    112866000                       # number of demand (read+write) miss cycles
system.l2.demand_miss_latency::.switch_cpus.data   9592641500                       # number of demand (read+write) miss cycles
system.l2.demand_miss_latency::total       9705507500                       # number of demand (read+write) miss cycles
system.l2.overall_miss_latency::.switch_cpus.inst    112866000                       # number of overall miss cycles
system.l2.overall_miss_latency::.switch_cpus.data   9592641500                       # number of overall miss cycles
system.l2.overall_miss_latency::total      9705507500                       # number of overall miss cycles
system.l2.demand_accesses::.cpu.inst                2                       # number of demand (read+write) accesses
system.l2.demand_accesses::.cpu.data                4                       # number of demand (read+write) accesses
system.l2.demand_accesses::.switch_cpus.inst         2270                       # number of demand (read+write) accesses
system.l2.demand_accesses::.switch_cpus.data       118491                       # number of demand (read+write) accesses
system.l2.demand_accesses::total               120767                       # number of demand (read+write) accesses
system.l2.overall_accesses::.cpu.inst               2                       # number of overall (read+write) accesses
system.l2.overall_accesses::.cpu.data               4                       # number of overall (read+write) accesses
system.l2.overall_accesses::.switch_cpus.inst         2270                       # number of overall (read+write) accesses
system.l2.overall_accesses::.switch_cpus.data       118491                       # number of overall (read+write) accesses
system.l2.overall_accesses::total              120767                       # number of overall (read+write) accesses
system.l2.demand_miss_rate::.cpu.inst               1                       # miss rate for demand accesses
system.l2.demand_miss_rate::.cpu.data               1                       # miss rate for demand accesses
system.l2.demand_miss_rate::.switch_cpus.inst     0.619824                       # miss rate for demand accesses
system.l2.demand_miss_rate::.switch_cpus.data     0.793824                       # miss rate for demand accesses
system.l2.demand_miss_rate::total            0.790564                       # miss rate for demand accesses
system.l2.overall_miss_rate::.cpu.inst              1                       # miss rate for overall accesses
system.l2.overall_miss_rate::.cpu.data              1                       # miss rate for overall accesses
system.l2.overall_miss_rate::.switch_cpus.inst     0.619824                       # miss rate for overall accesses
system.l2.overall_miss_rate::.switch_cpus.data     0.793824                       # miss rate for overall accesses
system.l2.overall_miss_rate::total           0.790564                       # miss rate for overall accesses
system.l2.demand_avg_miss_latency::.switch_cpus.inst 80217.484009                       # average overall miss latency
system.l2.demand_avg_miss_latency::.switch_cpus.data 101983.197074                       # average overall miss latency
system.l2.demand_avg_miss_latency::total 101656.026772                       # average overall miss latency
system.l2.overall_avg_miss_latency::.switch_cpus.inst 80217.484009                       # average overall miss latency
system.l2.overall_avg_miss_latency::.switch_cpus.data 101983.197074                       # average overall miss latency
system.l2.overall_avg_miss_latency::total 101656.026772                       # average overall miss latency
system.l2.blocked_cycles::no_mshrs                  0                       # number of cycles access was blocked
system.l2.blocked_cycles::no_targets                0                       # number of cycles access was blocked
system.l2.blocked::no_mshrs                         0                       # number of cycles access was blocked
system.l2.blocked::no_targets                       0                       # number of cycles access was blocked
system.l2.avg_blocked_cycles::no_mshrs            nan                       # average number of cycles each access was blocked
system.l2.avg_blocked_cycles::no_targets          nan                       # average number of cycles each access was blocked
system.l2.writebacks::.writebacks               29048                       # number of writebacks
system.l2.writebacks::total                     29048                       # number of writebacks
system.l2.demand_mshr_misses::.switch_cpus.inst         1407                       # number of demand (read+write) MSHR misses
system.l2.demand_mshr_misses::.switch_cpus.data        94061                       # number of demand (read+write) MSHR misses
system.l2.demand_mshr_misses::total             95468                       # number of demand (read+write) MSHR misses
system.l2.overall_mshr_misses::.switch_cpus.inst         1407                       # number of overall MSHR misses
system.l2.overall_mshr_misses::.switch_cpus.data        94061                       # number of overall MSHR misses
system.l2.overall_mshr_misses::total            95468                       # number of overall MSHR misses
system.l2.demand_mshr_miss_latency::.switch_cpus.inst     98796000                       # number of demand (read+write) MSHR miss cycles
system.l2.demand_mshr_miss_latency::.switch_cpus.data   8652051500                       # number of demand (read+write) MSHR miss cycles
system.l2.demand_mshr_miss_latency::total   8750847500                       # number of demand (read+write) MSHR miss cycles
system.l2.overall_mshr_miss_latency::.switch_cpus.inst     98796000                       # number of overall MSHR miss cycles
system.l2.overall_mshr_miss_latency::.switch_cpus.data   8652051500                       # number of overall MSHR miss cycles
system.l2.overall_mshr_miss_latency::total   8750847500                       # number of overall MSHR miss cycles
system.l2.demand_mshr_miss_rate::.switch_cpus.inst     0.619824                       # mshr miss rate for demand accesses
system.l2.demand_mshr_miss_rate::.switch_cpus.data     0.793824                       # mshr miss rate for demand accesses
system.l2.demand_mshr_miss_rate::total       0.790514                       # mshr miss rate for demand accesses
system.l2.overall_mshr_miss_rate::.switch_cpus.inst     0.619824                       # mshr miss rate for overall accesses
system.l2.overall_mshr_miss_rate::.switch_cpus.data     0.793824                       # mshr miss rate for overall accesses
system.l2.overall_mshr_miss_rate::total      0.790514                       # mshr miss rate for overall accesses
system.l2.demand_avg_mshr_miss_latency::.switch_cpus.inst 70217.484009                       # average overall mshr miss latency
system.l2.demand_avg_mshr_miss_latency::.switch_cpus.data 91983.409702                       # average overall mshr miss latency
system.l2.demand_avg_mshr_miss_latency::total 91662.625173                       # average overall mshr miss latency
system.l2.overall_avg_mshr_miss_latency::.switch_cpus.inst 70217.484009                       # average overall mshr miss latency
system.l2.overall_avg_mshr_miss_latency::.switch_cpus.data 91983.409702                       # average overall mshr miss latency
system.l2.overall_avg_mshr_miss_latency::total 91662.625173                       # average overall mshr miss latency
system.l2.replacements                         113067                       # number of replacements
system.l2.WritebackDirty_hits::.writebacks        49774                       # number of WritebackDirty hits
system.l2.WritebackDirty_hits::total            49774                       # number of WritebackDirty hits
system.l2.WritebackDirty_accesses::.writebacks        49774                       # number of WritebackDirty accesses(hits+misses)
system.l2.WritebackDirty_accesses::total        49774                       # number of WritebackDirty accesses(hits+misses)
system.l2.WritebackClean_hits::.writebacks         1760                       # number of WritebackClean hits
system.l2.WritebackClean_hits::total             1760                       # number of WritebackClean hits
system.l2.WritebackClean_accesses::.writebacks         1760                       # number of WritebackClean accesses(hits+misses)
system.l2.WritebackClean_accesses::total         1760                       # number of WritebackClean accesses(hits+misses)
system.l2.CleanEvict_mshr_misses::.writebacks        40168                       # number of CleanEvict MSHR misses
system.l2.CleanEvict_mshr_misses::total         40168                       # number of CleanEvict MSHR misses
system.l2.CleanEvict_mshr_miss_rate::.writebacks          inf                       # mshr miss rate for CleanEvict accesses
system.l2.CleanEvict_mshr_miss_rate::total          inf                       # mshr miss rate for CleanEvict accesses
system.l2.ReadExReq_hits::.switch_cpus.data         6725                       # number of ReadExReq hits
system.l2.ReadExReq_hits::total                  6725                       # number of ReadExReq hits
system.l2.ReadExReq_misses::.switch_cpus.data        28930                       # number of ReadExReq misses
system.l2.ReadExReq_misses::total               28930                       # number of ReadExReq misses
system.l2.ReadExReq_miss_latency::.switch_cpus.data   2848998000                       # number of ReadExReq miss cycles
system.l2.ReadExReq_miss_latency::total    2848998000                       # number of ReadExReq miss cycles
system.l2.ReadExReq_accesses::.switch_cpus.data        35655                       # number of ReadExReq accesses(hits+misses)
system.l2.ReadExReq_accesses::total             35655                       # number of ReadExReq accesses(hits+misses)
system.l2.ReadExReq_miss_rate::.switch_cpus.data     0.811387                       # miss rate for ReadExReq accesses
system.l2.ReadExReq_miss_rate::total         0.811387                       # miss rate for ReadExReq accesses
system.l2.ReadExReq_avg_miss_latency::.switch_cpus.data 98479.018320                       # average ReadExReq miss latency
system.l2.ReadExReq_avg_miss_latency::total 98479.018320                       # average ReadExReq miss latency
system.l2.ReadExReq_mshr_misses::.switch_cpus.data        28930                       # number of ReadExReq MSHR misses
system.l2.ReadExReq_mshr_misses::total          28930                       # number of ReadExReq MSHR misses
system.l2.ReadExReq_mshr_miss_latency::.switch_cpus.data   2559698000                       # number of ReadExReq MSHR miss cycles
system.l2.ReadExReq_mshr_miss_latency::total   2559698000                       # number of ReadExReq MSHR miss cycles
system.l2.ReadExReq_mshr_miss_rate::.switch_cpus.data     0.811387                       # mshr miss rate for ReadExReq accesses
system.l2.ReadExReq_mshr_miss_rate::total     0.811387                       # mshr miss rate for ReadExReq accesses
system.l2.ReadExReq_avg_mshr_miss_latency::.switch_cpus.data 88479.018320                       # average ReadExReq mshr miss latency
system.l2.ReadExReq_avg_mshr_miss_latency::total 88479.018320                       # average ReadExReq mshr miss latency
system.l2.ReadCleanReq_hits::.switch_cpus.inst          863                       # number of ReadCleanReq hits
system.l2.ReadCleanReq_hits::total                863                       # number of ReadCleanReq hits
system.l2.ReadCleanReq_misses::.cpu.inst            2                       # number of ReadCleanReq misses
system.l2.ReadCleanReq_misses::.switch_cpus.inst         1407                       # number of ReadCleanReq misses
system.l2.ReadCleanReq_misses::total             1409                       # number of ReadCleanReq misses
system.l2.ReadCleanReq_miss_latency::.switch_cpus.inst    112866000                       # number of ReadCleanReq miss cycles
system.l2.ReadCleanReq_miss_latency::total    112866000                       # number of ReadCleanReq miss cycles
system.l2.ReadCleanReq_accesses::.cpu.inst            2                       # number of ReadCleanReq accesses(hits+misses)
system.l2.ReadCleanReq_accesses::.switch_cpus.inst         2270                       # number of ReadCleanReq accesses(hits+misses)
system.l2.ReadCleanReq_accesses::total           2272                       # number of ReadCleanReq accesses(hits+misses)
system.l2.ReadCleanReq_miss_rate::.cpu.inst            1                       # miss rate for ReadCleanReq accesses
system.l2.ReadCleanReq_miss_rate::.switch_cpus.inst     0.619824                       # miss rate for ReadCleanReq accesses
system.l2.ReadCleanReq_miss_rate::total      0.620158                       # miss rate for ReadCleanReq accesses
system.l2.ReadCleanReq_avg_miss_latency::.switch_cpus.inst 80217.484009                       # average ReadCleanReq miss latency
[...]
system.cpu.itb_walker_cache.tags.tag_accesses            0                       # Number of tag accesses
system.cpu.itb_walker_cache.tags.data_accesses            0                       # Number of data accesses
system.cpu.itb.walker.pwrStateResidencyTicks::UNDEFINED 371691204627500                       # Cumulative time (in ticks) in various power states
system.cpu.dtb_walker_cache.pwrStateResidencyTicks::UNDEFINED 371691204627500                       # Cumulative time (in ticks) in various power states
system.cpu.dtb_walker_cache.blocked_cycles::no_mshrs            0                       # number of cycles access was blocked
system.cpu.dtb_walker_cache.blocked_cycles::no_targets            0                       # number of cycles access was blocked
system.cpu.dtb_walker_cache.blocked::no_mshrs            0                       # number of cycles access was blocked
system.cpu.dtb_walker_cache.blocked::no_targets            0                       # number of cycles access was blocked
system.cpu.dtb_walker_cache.avg_blocked_cycles::no_mshrs          nan                       # average number of cycles each access was blocked
system.cpu.dtb_walker_cache.avg_blocked_cycles::no_targets          nan                       # average number of cycles each access was blocked
system.cpu.dtb_walker_cache.replacements            0                       # number of replacements
system.cpu.dtb_walker_cache.tags.pwrStateResidencyTicks::UNDEFINED 371691204627500                       # Cumulative time (in ticks) in various power states
system.cpu.dtb_walker_cache.tags.tagsinuse            0                       # Cycle average of tags in use
system.cpu.dtb_walker_cache.tags.total_refs            0                       # Total number of references to valid blocks.
system.cpu.dtb_walker_cache.tags.sampled_refs            0                       # Sample count of references to valid blocks.
system.cpu.dtb_walker_cache.tags.avg_refs          nan                       # Average number of references to valid blocks.
system.cpu.dtb_walker_cache.tags.warmup_cycle            0                       # Cycle when the warmup percentage was hit.
system.cpu.dtb_walker_cache.tags.tag_accesses            0                       # Number of tag accesses
system.cpu.dtb_walker_cache.tags.data_accesses            0                       # Number of data accesses
system.cpu.dcache.pwrStateResidencyTicks::UNDEFINED 371691204627500                       # Cumulative time (in ticks) in various power states
system.cpu.dcache.demand_hits::.cpu.data            4                       # number of demand (read+write) hits
system.cpu.dcache.demand_hits::.switch_cpus.data     36988914                       # number of demand (read+write) hits
system.cpu.dcache.demand_hits::total         36988918                       # number of demand (read+write) hits
system.cpu.dcache.overall_hits::.cpu.data            4                       # number of overall hits
system.cpu.dcache.overall_hits::.switch_cpus.data     37047682                       # number of overall hits
system.cpu.dcache.overall_hits::total        37047686                       # number of overall hits
system.cpu.dcache.demand_misses::.cpu.data            4                       # number of demand (read+write) misses
system.cpu.dcache.demand_misses::.switch_cpus.data       661561                       # number of demand (read+write) misses
system.cpu.dcache.demand_misses::total         661565                       # number of demand (read+write) misses
system.cpu.dcache.overall_misses::.cpu.data            4                       # number of overall misses
system.cpu.dcache.overall_misses::.switch_cpus.data       676323                       # number of overall misses
system.cpu.dcache.overall_misses::total        676327                       # number of overall misses
system.cpu.dcache.demand_miss_latency::.switch_cpus.data  52041458920                       # number of demand (read+write) miss cycles
system.cpu.dcache.demand_miss_latency::total  52041458920                       # number of demand (read+write) miss cycles
system.cpu.dcache.overall_miss_latency::.switch_cpus.data  52041458920                       # number of overall miss cycles
system.cpu.dcache.overall_miss_latency::total  52041458920                       # number of overall miss cycles
system.cpu.dcache.demand_accesses::.cpu.data            8                       # number of demand (read+write) accesses
system.cpu.dcache.demand_accesses::.switch_cpus.data     37650475                       # number of demand (read+write) accesses
system.cpu.dcache.demand_accesses::total     37650483                       # number of demand (read+write) accesses
system.cpu.dcache.overall_accesses::.cpu.data            8                       # number of overall (read+write) accesses
system.cpu.dcache.overall_accesses::.switch_cpus.data     37724005                       # number of overall (read+write) accesses
system.cpu.dcache.overall_accesses::total     37724013                       # number of overall (read+write) accesses
system.cpu.dcache.demand_miss_rate::.cpu.data     0.500000                       # miss rate for demand accesses
system.cpu.dcache.demand_miss_rate::.switch_cpus.data     0.017571                       # miss rate for demand accesses
system.cpu.dcache.demand_miss_rate::total     0.017571                       # miss rate for demand accesses
system.cpu.dcache.overall_miss_rate::.cpu.data     0.500000                       # miss rate for overall accesses
system.cpu.dcache.overall_miss_rate::.switch_cpus.data     0.017928                       # miss rate for overall accesses
system.cpu.dcache.overall_miss_rate::total     0.017928                       # miss rate for overall accesses
system.cpu.dcache.demand_avg_miss_latency::.switch_cpus.data 78664.641537                       # average overall miss latency
system.cpu.dcache.demand_avg_miss_latency::total 78664.165910                       # average overall miss latency
system.cpu.dcache.overall_avg_miss_latency::.switch_cpus.data 76947.640284                       # average overall miss latency
system.cpu.dcache.overall_avg_miss_latency::total 76947.185193                       # average overall miss latency
system.cpu.dcache.blocked_cycles::no_mshrs      7697473                       # number of cycles access was blocked
system.cpu.dcache.blocked_cycles::no_targets          526                       # number of cycles access was blocked
system.cpu.dcache.blocked::no_mshrs            119967                       # number of cycles access was blocked
system.cpu.dcache.blocked::no_targets               2                       # number of cycles access was blocked
system.cpu.dcache.avg_blocked_cycles::no_mshrs    64.163253                       # average number of cycles each access was blocked
system.cpu.dcache.avg_blocked_cycles::no_targets          263                       # average number of cycles each access was blocked
system.cpu.dcache.writebacks::.writebacks       196965                       # number of writebacks
system.cpu.dcache.writebacks::total            196965                       # number of writebacks
system.cpu.dcache.demand_mshr_hits::.switch_cpus.data       215529                       # number of demand (read+write) MSHR hits
system.cpu.dcache.demand_mshr_hits::total       215529                       # number of demand (read+write) MSHR hits
system.cpu.dcache.overall_mshr_hits::.switch_cpus.data       215529                       # number of overall MSHR hits
system.cpu.dcache.overall_mshr_hits::total       215529                       # number of overall MSHR hits
system.cpu.dcache.demand_mshr_misses::.switch_cpus.data       446032                       # number of demand (read+write) MSHR misses
system.cpu.dcache.demand_mshr_misses::total       446032                       # number of demand (read+write) MSHR misses
system.cpu.dcache.overall_mshr_misses::.switch_cpus.data       451475                       # number of overall MSHR misses
system.cpu.dcache.overall_mshr_misses::total       451475                       # number of overall MSHR misses
system.cpu.dcache.demand_mshr_miss_latency::.switch_cpus.data  36141821920                       # number of demand (read+write) MSHR miss cycles
system.cpu.dcache.demand_mshr_miss_latency::total  36141821920                       # number of demand (read+write) MSHR miss cycles
system.cpu.dcache.overall_mshr_miss_latency::.switch_cpus.data  36623566420                       # number of overall MSHR miss cycles
system.cpu.dcache.overall_mshr_miss_latency::total  36623566420                       # number of overall MSHR miss cycles
system.cpu.dcache.demand_mshr_miss_rate::.switch_cpus.data     0.011847                       # mshr miss rate for demand accesses
system.cpu.dcache.demand_mshr_miss_rate::total     0.011847                       # mshr miss rate for demand accesses
system.cpu.dcache.overall_mshr_miss_rate::.switch_cpus.data     0.011968                       # mshr miss rate for overall accesses
system.cpu.dcache.overall_mshr_miss_rate::total     0.011968                       # mshr miss rate for overall accesses
system.cpu.dcache.demand_avg_mshr_miss_latency::.switch_cpus.data 81029.661370                       # average overall mshr miss latency
system.cpu.dcache.demand_avg_mshr_miss_latency::total 81029.661370                       # average overall mshr miss latency
system.cpu.dcache.overall_avg_mshr_miss_latency::.switch_cpus.data 81119.810444                       # average overall mshr miss latency
system.cpu.dcache.overall_avg_mshr_miss_latency::total 81119.810444                       # average overall mshr miss latency
system.cpu.dcache.replacements                 450455                       # number of replacements
system.cpu.dcache.ReadReq_hits::.cpu.data            4                       # number of ReadReq hits
system.cpu.dcache.ReadReq_hits::.switch_cpus.data     28134251                       # number of ReadReq hits
system.cpu.dcache.ReadReq_hits::total        28134255                       # number of ReadReq hits
system.cpu.dcache.ReadReq_misses::.cpu.data            4                       # number of ReadReq misses
system.cpu.dcache.ReadReq_misses::.switch_cpus.data       533507                       # number of ReadReq misses
system.cpu.dcache.ReadReq_misses::total        533511                       # number of ReadReq misses
system.cpu.dcache.ReadReq_miss_latency::.switch_cpus.data  41356629000                       # number of ReadReq miss cycles
system.cpu.dcache.ReadReq_miss_latency::total  41356629000                       # number of ReadReq miss cycles
system.cpu.dcache.ReadReq_accesses::.cpu.data            8                       # number of ReadReq accesses(hits+misses)
system.cpu.dcache.ReadReq_accesses::.switch_cpus.data     28667758                       # number of ReadReq accesses(hits+misses)
system.cpu.dcache.ReadReq_accesses::total     28667766                       # number of ReadReq accesses(hits+misses)
system.cpu.dcache.ReadReq_miss_rate::.cpu.data     0.500000                       # miss rate for ReadReq accesses
system.cpu.dcache.ReadReq_miss_rate::.switch_cpus.data     0.018610                       # miss rate for ReadReq accesses
system.cpu.dcache.ReadReq_miss_rate::total     0.018610                       # miss rate for ReadReq accesses
system.cpu.dcache.ReadReq_avg_miss_latency::.switch_cpus.data 77518.437434                       # average ReadReq miss latency
system.cpu.dcache.ReadReq_avg_miss_latency::total 77517.856239                       # average ReadReq miss latency
system.cpu.dcache.ReadReq_mshr_hits::.switch_cpus.data       215439                       # number of ReadReq MSHR hits
system.cpu.dcache.ReadReq_mshr_hits::total       215439                       # number of ReadReq MSHR hits
system.cpu.dcache.ReadReq_mshr_misses::.switch_cpus.data       318068                       # number of ReadReq MSHR misses
system.cpu.dcache.ReadReq_mshr_misses::total       318068                       # number of ReadReq MSHR misses
system.cpu.dcache.ReadReq_mshr_miss_latency::.switch_cpus.data  25586111500                       # number of ReadReq MSHR miss cycles
system.cpu.dcache.ReadReq_mshr_miss_latency::total  25586111500                       # number of ReadReq MSHR miss cycles
system.cpu.dcache.ReadReq_mshr_miss_rate::.switch_cpus.data     0.011095                       # mshr miss rate for ReadReq accesses
system.cpu.dcache.ReadReq_mshr_miss_rate::total     0.011095                       # mshr miss rate for ReadReq accesses
system.cpu.dcache.ReadReq_avg_mshr_miss_latency::.switch_cpus.data 80442.268634                       # average ReadReq mshr miss latency
system.cpu.dcache.ReadReq_avg_mshr_miss_latency::total 80442.268634                       # average ReadReq mshr miss latency
system.cpu.dcache.WriteReq_hits::.switch_cpus.data      8854663                       # number of WriteReq hits
system.cpu.dcache.WriteReq_hits::total        8854663                       # number of WriteReq hits
system.cpu.dcache.WriteReq_misses::.switch_cpus.data       128054                       # number of WriteReq misses
system.cpu.dcache.WriteReq_misses::total       128054                       # number of WriteReq misses
system.cpu.dcache.WriteReq_miss_latency::.switch_cpus.data  10684829920                       # number of WriteReq miss cycles
system.cpu.dcache.WriteReq_miss_latency::total  10684829920                       # number of WriteReq miss cycles
system.cpu.dcache.WriteReq_accesses::.switch_cpus.data      8982717                       # number of WriteReq accesses(hits+misses)
system.cpu.dcache.WriteReq_accesses::total      8982717                       # number of WriteReq accesses(hits+misses)
system.cpu.dcache.WriteReq_miss_rate::.switch_cpus.data     0.014256                       # miss rate for WriteReq accesses
system.cpu.dcache.WriteReq_miss_rate::total     0.014256                       # miss rate for WriteReq accesses
system.cpu.dcache.WriteReq_avg_miss_latency::.switch_cpus.data 83440.032486                       # average WriteReq miss latency
system.cpu.dcache.WriteReq_avg_miss_latency::total 83440.032486                       # average WriteReq miss latency
system.cpu.dcache.WriteReq_mshr_hits::.switch_cpus.data           90                       # number of WriteReq MSHR hits
system.cpu.dcache.WriteReq_mshr_hits::total           90                       # number of WriteReq MSHR hits
system.cpu.dcache.WriteReq_mshr_misses::.switch_cpus.data       127964                       # number of WriteReq MSHR misses
system.cpu.dcache.WriteReq_mshr_misses::total       127964                       # number of WriteReq MSHR misses
system.cpu.dcache.WriteReq_mshr_miss_latency::.switch_cpus.data  10555710420                       # number of WriteReq MSHR miss cycles
system.cpu.dcache.WriteReq_mshr_miss_latency::total  10555710420                       # number of WriteReq MSHR miss cycles
system.cpu.dcache.WriteReq_mshr_miss_rate::.switch_cpus.data     0.014246                       # mshr miss rate for WriteReq accesses
system.cpu.dcache.WriteReq_mshr_miss_rate::total     0.014246                       # mshr miss rate for WriteReq accesses
system.cpu.dcache.WriteReq_avg_mshr_miss_latency::.switch_cpus.data 82489.687881                       # average WriteReq mshr miss latency
system.cpu.dcache.WriteReq_avg_mshr_miss_latency::total 82489.687881                       # average WriteReq mshr miss latency
system.cpu.dcache.SoftPFReq_hits::.switch_cpus.data        58768                       # number of SoftPFReq hits
system.cpu.dcache.SoftPFReq_hits::total         58768                       # number of SoftPFReq hits
system.cpu.dcache.SoftPFReq_misses::.switch_cpus.data        14762                       # number of SoftPFReq misses
system.cpu.dcache.SoftPFReq_misses::total        14762                       # number of SoftPFReq misses
system.cpu.dcache.SoftPFReq_accesses::.switch_cpus.data        73530                       # number of SoftPFReq accesses(hits+misses)
system.cpu.dcache.SoftPFReq_accesses::total        73530                       # number of SoftPFReq accesses(hits+misses)
system.cpu.dcache.SoftPFReq_miss_rate::.switch_cpus.data     0.200762                       # miss rate for SoftPFReq accesses
system.cpu.dcache.SoftPFReq_miss_rate::total     0.200762                       # miss rate for SoftPFReq accesses
system.cpu.dcache.SoftPFReq_mshr_misses::.switch_cpus.data         5443                       # number of SoftPFReq MSHR misses
system.cpu.dcache.SoftPFReq_mshr_misses::total         5443                       # number of SoftPFReq MSHR misses
system.cpu.dcache.SoftPFReq_mshr_miss_latency::.switch_cpus.data    481744500                       # number of SoftPFReq MSHR miss cycles
system.cpu.dcache.SoftPFReq_mshr_miss_latency::total    481744500                       # number of SoftPFReq MSHR miss cycles
system.cpu.dcache.SoftPFReq_mshr_miss_rate::.switch_cpus.data     0.074024                       # mshr miss rate for SoftPFReq accesses
system.cpu.dcache.SoftPFReq_mshr_miss_rate::total     0.074024                       # mshr miss rate for SoftPFReq accesses
system.cpu.dcache.SoftPFReq_avg_mshr_miss_latency::.switch_cpus.data 88507.165166                       # average SoftPFReq mshr miss latency
system.cpu.dcache.SoftPFReq_avg_mshr_miss_latency::total 88507.165166                       # average SoftPFReq mshr miss latency
system.cpu.dcache.tags.pwrStateResidencyTicks::UNDEFINED 371691204627500                       # Cumulative time (in ticks) in various power states
system.cpu.dcache.tags.tagsinuse             0.082761                       # Cycle average of tags in use
system.cpu.dcache.tags.total_refs            37499165                       # Total number of references to valid blocks.
system.cpu.dcache.tags.sampled_refs            451479                       # Sample count of references to valid blocks.
system.cpu.dcache.tags.avg_refs             83.058492                       # Average number of references to valid blocks.
system.cpu.dcache.tags.warmup_cycle      371661094883500                       # Cycle when the warmup percentage was hit.
system.cpu.dcache.tags.occ_blocks::.cpu.data     0.000004                       # Average occupied blocks per requestor
system.cpu.dcache.tags.occ_blocks::.switch_cpus.data     0.082757                       # Average occupied blocks per requestor
system.cpu.dcache.tags.occ_percent::.cpu.data     0.000000                       # Average percentage of cache occupancy
system.cpu.dcache.tags.occ_percent::.switch_cpus.data     0.000081                       # Average percentage of cache occupancy
system.cpu.dcache.tags.occ_percent::total     0.000081                       # Average percentage of cache occupancy
system.cpu.dcache.tags.occ_task_id_blocks::1024         1024                       # Occupied blocks per task id
system.cpu.dcache.tags.age_task_id_blocks_1024::0          125                       # Occupied blocks per task id
system.cpu.dcache.tags.age_task_id_blocks_1024::1          796                       # Occupied blocks per task id
system.cpu.dcache.tags.age_task_id_blocks_1024::2           98                       # Occupied blocks per task id
system.cpu.dcache.tags.age_task_id_blocks_1024::3            5                       # Occupied blocks per task id
system.cpu.dcache.tags.occ_task_id_percent::1024            1                       # Percentage of cache occupancy per task id
system.cpu.dcache.tags.tag_accesses          75899505                       # Number of tag accesses
system.cpu.dcache.tags.data_accesses         75899505                       # Number of data accesses

---------- End Simulation Statistics   ----------
