
---------- Begin Simulation Statistics ----------
final_tick                               81939768651000                       # Number of ticks from beginning of simulation (restored from checkpoints and never reset)
host_inst_rate                                  47008                       # Simulator instruction rate (inst/s)
host_mem_usage                                 791524                       # Number of bytes of host memory used
host_op_rate                                    75398                       # Simulator op (including micro ops) rate (op/s)
host_seconds                                   212.73                       # Real time elapsed on the host
host_tick_rate                               12693877                       # Simulator tick rate (ticks/s)
sim_freq                                 1000000000000                       # Frequency of simulated ticks
sim_insts                                    10000011                       # Number of instructions simulated
sim_ops                                      16039482                       # Number of ops (including micro ops) simulated
sim_seconds                                  0.002700                       # Number of seconds simulated
sim_ticks                                  2700393500                       # Number of ticks simulated
system.cpu.committedInsts                          11                       # Number of instructions committed
system.cpu.committedOps                            16                       # Number of ops (including micro ops) committed
system.cpu.dtb.rdAccesses                           5                       # TLB accesses on read requests
system.cpu.dtb.rdMisses                             0                       # TLB misses on read requests
system.cpu.dtb.wrAccesses                           2                       # TLB accesses on write requests
system.cpu.dtb.wrMisses                             0                       # TLB misses on write requests
system.cpu.idle_fraction                            0                       # Percentage of idle cycles
system.cpu.itb.rdAccesses                           0                       # TLB accesses on read requests
system.cpu.itb.rdMisses                             0                       # TLB misses on read requests
system.cpu.itb.wrAccesses                          16                       # TLB accesses on write requests
system.cpu.itb.wrMisses                             0                       # TLB misses on write requests
system.cpu.not_idle_fraction                        1                       # Percentage of non-idle cycles
system.cpu.numCycles                               21                       # number of cpu cycles simulated
system.cpu.numWorkItemsCompleted                    0                       # number of work items this cpu completed
system.cpu.numWorkItemsStarted                      0                       # number of work items this cpu started
system.cpu.num_busy_cycles                         21                       # Number of busy cycles
system.cpu.num_cc_register_reads                   20                       # number of times the CC registers were read
system.cpu.num_cc_register_writes                   8                       # number of times the CC registers were written
system.cpu.num_conditional_control_insts            0                       # number of instructions that are conditional controls
system.cpu.num_fp_alu_accesses                      0                       # Number of float alu accesses
system.cpu.num_fp_insts                             0                       # number of float instructions
system.cpu.num_fp_register_reads                    0                       # number of times the floating registers were read
system.cpu.num_fp_register_writes                   0                       # number of times the floating registers were written
system.cpu.num_func_calls                           0                       # number of times a function call or return occured
system.cpu.num_idle_cycles                          0                       # Number of idle cycles
system.cpu.num_int_alu_accesses                    16                       # Number of integer alu accesses
system.cpu.num_int_insts                           16                       # number of integer instructions
system.cpu.num_int_register_reads                  43                       # number of times the integer registers were read
system.cpu.num_int_register_writes                 14                       # number of times the integer registers were written
system.cpu.num_load_insts                           5                       # Number of load instructions
system.cpu.num_mem_refs                             7                       # number of memory refs
system.cpu.num_store_insts                          2                       # Number of store instructions
system.cpu.num_vec_alu_accesses                     0                       # Number of vector alu accesses
system.cpu.num_vec_insts                            0                       # number of vector instructions
system.cpu.num_vec_register_reads                   0                       # number of times the vector registers were read
system.cpu.num_vec_register_writes                  0                       # number of times the vector registers were written
system.cpu.op_class::No_OpClass                     0      0.00%      0.00% # Class of executed instruction
system.cpu.op_class::IntAlu                         9     56.25%     56.25% # Class of executed instruction
system.cpu.op_class::IntMult                        0      0.00%     56.25% # Class of executed instruction
system.cpu.op_class::IntDiv                         0      0.00%     56.25% # Class of executed instruction
system.cpu.op_class::FloatAdd                       0      0.00%     56.25% # Class of executed instruction
system.cpu.op_class::FloatCmp                       0      0.00%     56.25% # Class of executed instruction
system.cpu.op_class::FloatCvt                       0      0.00%     56.25% # Class of executed instruction
system.cpu.op_class::FloatMult                      0      0.00%     56.25% # Class of executed instruction
system.cpu.op_class::FloatMultAcc                   0      0.00%     56.25% # Class of executed instruction
system.cpu.op_class::FloatDiv                       0      0.00%     56.25% # Class of executed instruction
system.cpu.op_class::FloatMisc                      0      0.00%     56.25% # Class of executed instruction
system.cpu.op_class::FloatSqrt                      0      0.00%     56.25% # Class of executed instruction
system.cpu.op_class::SimdAdd                        0      0.00%     56.25% # Class of executed instruction
system.cpu.op_class::SimdAddAcc                     0      0.00%     56.25% # Class of executed instruction
system.cpu.op_class::SimdAlu                        0      0.00%     56.25% # Class of executed instruction
system.cpu.op_class::SimdCmp                        0      0.00%     56.25% # Class of executed instruction
system.cpu.op_class::SimdCvt                        0      0.00%     56.25% # Class of executed instruction
system.cpu.op_class::SimdMisc                       0      0.00%     56.25% # Class of executed instruction
system.cpu.op_class::SimdMult                       0      0.00%     56.25% # Class of executed instruction
system.cpu.op_class::SimdMultAcc                    0      0.00%     56.25% # Class of executed instruction
system.cpu.op_class::SimdShift                      0      0.00%     56.25% # Class of executed instruction
system.cpu.op_class::SimdShiftAcc                   0      0.00%     56.25% # Class of executed instruction
system.cpu.op_class::SimdDiv                        0      0.00%     56.25% # Class of executed instruction
system.cpu.op_class::SimdSqrt                       0      0.00%     56.25% # Class of executed instruction
system.cpu.op_class::SimdFloatAdd                   0      0.00%     56.25% # Class of executed instruction
system.cpu.op_class::SimdFloatAlu                   0      0.00%     56.25% # Class of executed instruction
system.cpu.op_class::SimdFloatCmp                   0      0.00%     56.25% # Class of executed instruction
system.cpu.op_class::SimdFloatCvt                   0      0.00%     56.25% # Class of executed instruction
system.cpu.op_class::SimdFloatDiv                   0      0.00%     56.25% # Class of executed instruction
system.cpu.op_class::SimdFloatMisc                  0      0.00%     56.25% # Class of executed instruction
system.cpu.op_class::SimdFloatMult                  0      0.00%     56.25% # Class of executed instruction
system.cpu.op_class::SimdFloatMultAcc               0      0.00%     56.25% # Class of executed instruction
system.cpu.op_class::SimdFloatSqrt                  0      0.00%     56.25% # Class of executed instruction
system.cpu.op_class::SimdReduceAdd                  0      0.00%     56.25% # Class of executed instruction
system.cpu.op_class::SimdReduceAlu                  0      0.00%     56.25% # Class of executed instruction
system.cpu.op_class::SimdReduceCmp                  0      0.00%     56.25% # Class of executed instruction
system.cpu.op_class::SimdFloatReduceAdd             0      0.00%     56.25% # Class of executed instruction
system.cpu.op_class::SimdFloatReduceCmp             0      0.00%     56.25% # Class of executed instruction
system.cpu.op_class::SimdAes                        0      0.00%     56.25% # Class of executed instruction
system.cpu.op_class::SimdAesMix                     0      0.00%     56.25% # Class of executed instruction
system.cpu.op_class::SimdSha1Hash                   0      0.00%     56.25% # Class of executed instruction
system.cpu.op_class::SimdSha1Hash2                  0      0.00%     56.25% # Class of executed instruction
system.cpu.op_class::SimdSha256Hash                 0      0.00%     56.25% # Class of executed instruction
system.cpu.op_class::SimdSha256Hash2                0      0.00%     56.25% # Class of executed instruction
system.cpu.op_class::SimdShaSigma2                  0      0.00%     56.25% # Class of executed instruction
system.cpu.op_class::SimdShaSigma3                  0      0.00%     56.25% # Class of executed instruction
system.cpu.op_class::SimdPredAlu                    0      0.00%     56.25% # Class of executed instruction
system.cpu.op_class::MemRead                        5     31.25%     87.50% # Class of executed instruction
system.cpu.op_class::MemWrite                       2     12.50%    100.00% # Class of executed instruction
system.cpu.op_class::FloatMemRead                   0      0.00%    100.00% # Class of executed instruction
system.cpu.op_class::FloatMemWrite                  0      0.00%    100.00% # Class of executed instruction
system.cpu.op_class::IprAccess                      0      0.00%    100.00% # Class of executed instruction
system.cpu.op_class::InstPrefetch                   0      0.00%    100.00% # Class of executed instruction
system.cpu.op_class::total                         16                       # Class of executed instruction
system.cpu.workload.numSyscalls                     0                       # Number of system calls
system.membus.snoop_filter.hit_multi_requests            0                       # Number of requests hitting in the snoop filter with multiple (>1) holders of the requested data.
system.membus.snoop_filter.hit_multi_snoops            0                       # Number of snoops hitting in the snoop filter with multiple (>1) holders of the requested data.
system.membus.snoop_filter.hit_single_requests         1727                       # Number of requests hitting in the snoop filter with a single holder of the requested data.
system.membus.snoop_filter.hit_single_snoops            0                       # Number of snoops hitting in the snoop filter with a single holder of the requested data.
system.membus.snoop_filter.tot_requests          5779                       # Total number of requests made to the snoop filter.
system.membus.snoop_filter.tot_snoops               0                       # Total number of snoops made to the snoop filter.
system.switch_cpus.branchPred.BTBCorrect            0                       # Number of correct BTB predictions (this stat may not work properly.
system.switch_cpus.branchPred.BTBHitPct      0.000000                       # BTB Hit Percentage
system.switch_cpus.branchPred.BTBHits               0                       # Number of BTB hits
system.switch_cpus.branchPred.BTBLookups       637335                       # Number of BTB lookups
system.switch_cpus.branchPred.RASInCorrect            1                       # Number of incorrect RAS predictions.
system.switch_cpus.branchPred.condIncorrect        20429                       # Number of conditional branches incorrect
system.switch_cpus.branchPred.condPredicted       861742                       # Number of conditional branches predicted
system.switch_cpus.branchPred.indirectHits       499331                       # Number of indirect target hits.
system.switch_cpus.branchPred.indirectLookups       637335                       # Number of indirect predictor lookups.
system.switch_cpus.branchPred.indirectMisses       138004                       # Number of indirect misses.
system.switch_cpus.branchPred.lookups          945184                       # Number of BP lookups
system.switch_cpus.branchPred.usedRAS           40871                       # Number of times the RAS was used to get a target.
system.switch_cpus.branchPredindirectMispredicted         2731                       # Number of mispredicted indirect branches.
system.switch_cpus.cc_regfile_reads          14091815                       # number of cc regfile reads
system.switch_cpus.cc_regfile_writes          7120636                       # number of cc regfile writes
system.switch_cpus.commit.amos                      0                       # Number of atomic instructions committed
system.switch_cpus.commit.branchMispredicts        20456                       # The number of times a branch was mispredicted
system.switch_cpus.commit.branches             716889                       # Number of branches committed
system.switch_cpus.commit.bw_lim_events       1267428                       # number cycles where commit BW limit reached
system.switch_cpus.commit.commitSquashedInsts      1247433                       # The number of squashed insts skipped by commit
system.switch_cpus.commit.committedInsts     10000000                       # Number of instructions committed
system.switch_cpus.commit.committedOps       16039466                       # Number of ops (including micro ops) committed
system.switch_cpus.commit.committed_per_cycle::samples      5223486                       # Number of insts commited each cycle
system.switch_cpus.commit.committed_per_cycle::mean     3.070644                       # Number of insts commited each cycle
system.switch_cpus.commit.committed_per_cycle::stdev     3.120677                       # Number of insts commited each cycle
system.switch_cpus.commit.committed_per_cycle::underflows            0      0.00%      0.00% # Number of insts commited each cycle
system.switch_cpus.commit.committed_per_cycle::0       939997     18.00%     18.00% # Number of insts commited each cycle
system.switch_cpus.commit.committed_per_cycle::1      1890140     36.19%     54.18% # Number of insts commited each cycle
system.switch_cpus.commit.committed_per_cycle::2       435311      8.33%     62.51% # Number of insts commited each cycle
system.switch_cpus.commit.committed_per_cycle::3       195237      3.74%     66.25% # Number of insts commited each cycle
system.switch_cpus.commit.committed_per_cycle::4       152422      2.92%     69.17% # Number of insts commited each cycle
system.switch_cpus.commit.committed_per_cycle::5       155937      2.99%     72.16% # Number of insts commited each cycle
system.switch_cpus.commit.committed_per_cycle::6       144902      2.77%     74.93% # Number of insts commited each cycle
system.switch_cpus.commit.committed_per_cycle::7        42112      0.81%     75.74% # Number of insts commited each cycle
system.switch_cpus.commit.committed_per_cycle::8      1267428     24.26%    100.00% # Number of insts commited each cycle
system.switch_cpus.commit.committed_per_cycle::overflows            0      0.00%    100.00% # Number of insts commited each cycle
system.switch_cpus.commit.committed_per_cycle::min_value            0                       # Number of insts commited each cycle
system.switch_cpus.commit.committed_per_cycle::max_value            8                       # Number of insts commited each cycle
system.switch_cpus.commit.committed_per_cycle::total      5223486                       # Number of insts commited each cycle
system.switch_cpus.commit.fp_insts            1422468                       # Number of committed floating point instructions.
system.switch_cpus.commit.function_calls        32268                       # Number of function calls committed.
system.switch_cpus.commit.int_insts          14820827                       # Number of committed integer instructions.
system.switch_cpus.commit.loads               3605608                       # Number of loads committed
system.switch_cpus.commit.membars                   0                       # Number of memory barriers committed
system.switch_cpus.commit.op_class_0::No_OpClass        95096      0.59%      0.59% # Class of committed instruction
system.switch_cpus.commit.op_class_0::IntAlu      9834473     61.31%     61.91% # Class of committed instruction
system.switch_cpus.commit.op_class_0::IntMult        85136      0.53%     62.44% # Class of committed instruction
system.switch_cpus.commit.op_class_0::IntDiv            0      0.00%     62.44% # Class of committed instruction
system.switch_cpus.commit.op_class_0::FloatAdd        32304      0.20%     62.64% # Class of committed instruction
system.switch_cpus.commit.op_class_0::FloatCmp            0      0.00%     62.64% # Class of committed instruction
system.switch_cpus.commit.op_class_0::FloatCvt            0      0.00%     62.64% # Class of committed instruction
system.switch_cpus.commit.op_class_0::FloatMult            0      0.00%     62.64% # Class of committed instruction
system.switch_cpus.commit.op_class_0::FloatMultAcc            0      0.00%     62.64% # Class of committed instruction
system.switch_cpus.commit.op_class_0::FloatDiv            0      0.00%     62.64% # Class of committed instruction
system.switch_cpus.commit.op_class_0::FloatMisc            0      0.00%     62.64% # Class of committed instruction
system.switch_cpus.commit.op_class_0::FloatSqrt            0      0.00%     62.64% # Class of committed instruction
system.switch_cpus.commit.op_class_0::SimdAdd        21092      0.13%     62.77% # Class of committed instruction
system.switch_cpus.commit.op_class_0::SimdAddAcc            0      0.00%     62.77% # Class of committed instruction
system.switch_cpus.commit.op_class_0::SimdAlu       328288      2.05%     64.82% # Class of committed instruction
system.switch_cpus.commit.op_class_0::SimdCmp            0      0.00%     64.82% # Class of committed instruction
system.switch_cpus.commit.op_class_0::SimdCvt       126484      0.79%     65.61% # Class of committed instruction
system.switch_cpus.commit.op_class_0::SimdMisc       158973      0.99%     66.60% # Class of committed instruction
system.switch_cpus.commit.op_class_0::SimdMult            0      0.00%     66.60% # Class of committed instruction
system.switch_cpus.commit.op_class_0::SimdMultAcc            0      0.00%     66.60% # Class of committed instruction
system.switch_cpus.commit.op_class_0::SimdShift        63276      0.39%     66.99% # Class of committed instruction
system.switch_cpus.commit.op_class_0::SimdShiftAcc            0      0.00%     66.99% # Class of committed instruction
system.switch_cpus.commit.op_class_0::SimdDiv            0      0.00%     66.99% # Class of committed instruction
system.switch_cpus.commit.op_class_0::SimdSqrt            0      0.00%     66.99% # Class of committed instruction
system.switch_cpus.commit.op_class_0::SimdFloatAdd       107593      0.67%     67.66% # Class of committed instruction
system.switch_cpus.commit.op_class_0::SimdFloatAlu            0      0.00%     67.66% # Class of committed instruction
system.switch_cpus.commit.op_class_0::SimdFloatCmp           32      0.00%     67.66% # Class of committed instruction
system.switch_cpus.commit.op_class_0::SimdFloatCvt       150578      0.94%     68.60% # Class of committed instruction
system.switch_cpus.commit.op_class_0::SimdFloatDiv        21316      0.13%     68.73% # Class of committed instruction
system.switch_cpus.commit.op_class_0::SimdFloatMisc            0      0.00%     68.73% # Class of committed instruction
system.switch_cpus.commit.op_class_0::SimdFloatMult        11022      0.07%     68.80% # Class of committed instruction
system.switch_cpus.commit.op_class_0::SimdFloatMultAcc            0      0.00%     68.80% # Class of committed instruction
system.switch_cpus.commit.op_class_0::SimdFloatSqrt            0      0.00%     68.80% # Class of committed instruction
system.switch_cpus.commit.op_class_0::SimdReduceAdd            0      0.00%     68.80% # Class of committed instruction
system.switch_cpus.commit.op_class_0::SimdReduceAlu            0      0.00%     68.80% # Class of committed instruction
system.switch_cpus.commit.op_class_0::SimdReduceCmp            0      0.00%     68.80% # Class of committed instruction
system.switch_cpus.commit.op_class_0::SimdFloatReduceAdd            0      0.00%     68.80% # Class of committed instruction
system.switch_cpus.commit.op_class_0::SimdFloatReduceCmp            0      0.00%     68.80% # Class of committed instruction
system.switch_cpus.commit.op_class_0::SimdAes            0      0.00%     68.80% # Class of committed instruction
system.switch_cpus.commit.op_class_0::SimdAesMix            0      0.00%     68.80% # Class of committed instruction
system.switch_cpus.commit.op_class_0::SimdSha1Hash            0      0.00%     68.80% # Class of committed instruction
system.switch_cpus.commit.op_class_0::SimdSha1Hash2            0      0.00%     68.80% # Class of committed instruction
system.switch_cpus.commit.op_class_0::SimdSha256Hash            0      0.00%     68.80% # Class of committed instruction
system.switch_cpus.commit.op_class_0::SimdSha256Hash2            0      0.00%     68.80% # Class of committed instruction
system.switch_cpus.commit.op_class_0::SimdShaSigma2            0      0.00%     68.80% # Class of committed instruction
system.switch_cpus.commit.op_class_0::SimdShaSigma3            0      0.00%     68.80% # Class of committed instruction
system.switch_cpus.commit.op_class_0::SimdPredAlu            0      0.00%     68.80% # Class of committed instruction
system.switch_cpus.commit.op_class_0::MemRead      3381319     21.08%     89.88% # Class of committed instruction
system.switch_cpus.commit.op_class_0::MemWrite      1397848      8.72%     98.60% # Class of committed instruction
system.switch_cpus.commit.op_class_0::FloatMemRead       224289      1.40%    100.00% # Class of committed instruction
system.switch_cpus.commit.op_class_0::FloatMemWrite          347      0.00%    100.00% # Class of committed instruction
system.switch_cpus.commit.op_class_0::IprAccess            0      0.00%    100.00% # Class of committed instruction
system.switch_cpus.commit.op_class_0::InstPrefetch            0      0.00%    100.00% # Class of committed instruction
system.switch_cpus.commit.op_class_0::total     16039466                       # Class of committed instruction
system.switch_cpus.commit.refs                5003803                       # Number of memory references committed
system.switch_cpus.commit.swp_count                 0                       # Number of s/w prefetches committed
system.switch_cpus.commit.vec_insts                 0                       # Number of committed Vector instructions.
system.switch_cpus.committedInsts            10000000                       # Number of Instructions Simulated
system.switch_cpus.committedOps              16039466                       # Number of Ops (including micro ops) Simulated
system.switch_cpus.cpi                       0.540077                       # CPI: Cycles Per Instruction
system.switch_cpus.cpi_total                 0.540077                       # CPI: Total CPI of All Threads
system.switch_cpus.decode.BlockedCycles       2482065                       # Number of cycles decode is blocked
system.switch_cpus.decode.DecodedInsts       17635686                       # Number of instructions handled by decode
system.switch_cpus.decode.IdleCycles           559809                       # Number of cycles decode is idle
system.switch_cpus.decode.RunCycles           1559186                       # Number of cycles decode is running
system.switch_cpus.decode.SquashCycles          20687                       # Number of cycles decode is squashing
system.switch_cpus.decode.UnblockCycles        768893                       # Number of cycles decode is unblocking
system.switch_cpus.dtb.rdAccesses             3694462                       # TLB accesses on read requests
system.switch_cpus.dtb.rdMisses                    61                       # TLB misses on read requests
system.switch_cpus.dtb.wrAccesses             1411860                       # TLB accesses on write requests
system.switch_cpus.dtb.wrMisses                    78                       # TLB misses on write requests
system.switch_cpus.fetch.Branches              945184                       # Number of branches that fetch encountered
system.switch_cpus.fetch.CacheLines            855773                       # Number of cache lines fetched
system.switch_cpus.fetch.Cycles               4499872                       # Number of cycles fetch has run and was not squashing or blocked
system.switch_cpus.fetch.IcacheSquashes          3940                       # Number of outstanding Icache misses that were squashed
system.switch_cpus.fetch.Insts               10961236                       # Number of instructions fetch has processed
system.switch_cpus.fetch.MiscStallCycles           27                       # Number of cycles fetch has spent waiting on interrupts, or bad addresses, or out of MSHRs
system.switch_cpus.fetch.PendingTrapStallCycles          164                       # Number of stall cycles due to pending traps
system.switch_cpus.fetch.SquashCycles           41374                       # Number of cycles fetch has spent squashing
system.switch_cpus.fetch.branchRate          0.175009                       # Number of branch fetches per cycle
system.switch_cpus.fetch.icacheStallCycles       869898                       # Number of cycles fetch is stalled on an Icache miss
system.switch_cpus.fetch.predictedBranches       540202                       # Number of branches that fetch has predicted taken
system.switch_cpus.fetch.rate                2.029571                       # Number of inst fetches per cycle
system.switch_cpus.fetch.rateDist::samples      5390648                       # Number of instructions fetched each cycle (Total)
system.switch_cpus.fetch.rateDist::mean      3.316253                       # Number of instructions fetched each cycle (Total)
system.switch_cpus.fetch.rateDist::stdev     3.549822                       # Number of instructions fetched each cycle (Total)
system.switch_cpus.fetch.rateDist::underflows            0      0.00%      0.00% # Number of instructions fetched each cycle (Total)
system.switch_cpus.fetch.rateDist::0          2581969     47.90%     47.90% # Number of instructions fetched each cycle (Total)
system.switch_cpus.fetch.rateDist::1           134892      2.50%     50.40% # Number of instructions fetched each cycle (Total)
system.switch_cpus.fetch.rateDist::2           105102      1.95%     52.35% # Number of instructions fetched each cycle (Total)
system.switch_cpus.fetch.rateDist::3           150498      2.79%     55.14% # Number of instructions fetched each cycle (Total)
system.switch_cpus.fetch.rateDist::4           179755      3.33%     58.48% # Number of instructions fetched each cycle (Total)
system.switch_cpus.fetch.rateDist::5           335246      6.22%     64.69% # Number of instructions fetched each cycle (Total)
system.switch_cpus.fetch.rateDist::6           175184      3.25%     67.94% # Number of instructions fetched each cycle (Total)
system.switch_cpus.fetch.rateDist::7           190206      3.53%     71.47% # Number of instructions fetched each cycle (Total)
system.switch_cpus.fetch.rateDist::8          1537796     28.53%    100.00% # Number of instructions fetched each cycle (Total)
system.switch_cpus.fetch.rateDist::overflows            0      0.00%    100.00% # Number of instructions fetched each cycle (Total)
system.switch_cpus.fetch.rateDist::min_value            0                       # Number of instructions fetched each cycle (Total)
system.switch_cpus.fetch.rateDist::max_value            8                       # Number of instructions fetched each cycle (Total)
system.switch_cpus.fetch.rateDist::total      5390648                       # Number of instructions fetched each cycle (Total)
system.switch_cpus.fp_regfile_reads           2745616                       # number of floating regfile reads
system.switch_cpus.fp_regfile_writes          1368526                       # number of floating regfile writes
system.switch_cpus.idleCycles                   10118                       # Total number of cycles that the CPU has spent unscheduled due to idling
system.switch_cpus.iew.branchMispredicts        33859                       # Number of branch mispredicts detected at execute
system.switch_cpus.iew.exec_branches           781362                       # Number of branches executed
system.switch_cpus.iew.exec_nop                     0                       # number of nop insts executed
system.switch_cpus.iew.exec_rate             3.106789                       # Inst execution rate
system.switch_cpus.iew.exec_refs              5100764                       # number of memory reference insts executed
system.switch_cpus.iew.exec_stores            1411860                       # Number of stores executed
system.switch_cpus.iew.exec_swp                     0                       # number of swp insts executed
system.switch_cpus.iew.iewBlockCycles          150318                       # Number of cycles IEW is blocking
system.switch_cpus.iew.iewDispLoadInsts       3721836                       # Number of dispatched load instructions
system.switch_cpus.iew.iewDispNonSpecInsts            3                       # Number of dispatched non-speculative instructions
system.switch_cpus.iew.iewDispSquashedInsts          656                       # Number of squashed instructions skipped by dispatch
system.switch_cpus.iew.iewDispStoreInsts      1429390                       # Number of dispatched store instructions
system.switch_cpus.iew.iewDispatchedInsts     17286955                       # Number of instructions dispatched to IQ
system.switch_cpus.iew.iewExecLoadInsts       3688904                       # Number of load instructions executed
system.switch_cpus.iew.iewExecSquashedInsts        34517                       # Number of squashed instructions skipped in execute
system.switch_cpus.iew.iewExecutedInsts      16779042                       # Number of executed instructions
system.switch_cpus.iew.iewIQFullEvents            147                       # Number of times the IQ has become full, causing a stall
system.switch_cpus.iew.iewIdleCycles                0                       # Number of cycles IEW is idle
system.switch_cpus.iew.iewLSQFullEvents         25918                       # Number of times the LSQ has become full, causing a stall
system.switch_cpus.iew.iewSquashCycles          20687                       # Number of cycles IEW is squashing
system.switch_cpus.iew.iewUnblockCycles         26099                       # Number of cycles IEW is unblocking
system.switch_cpus.iew.lsq.thread0.blockedLoads            0                       # Number of blocked loads due to partial load-store forwarding
system.switch_cpus.iew.lsq.thread0.cacheBlocked          147                       # Number of times an access to memory failed due to the cache being blocked
system.switch_cpus.iew.lsq.thread0.forwLoads       376536                       # Number of loads that had data forwarded from stores
system.switch_cpus.iew.lsq.thread0.ignoredResponses           58                       # Number of memory responses ignored because the instruction is squashed
system.switch_cpus.iew.lsq.thread0.invAddrLoads            0                       # Number of loads ignored due to an invalid address
system.switch_cpus.iew.lsq.thread0.invAddrSwpfs            0                       # Number of software prefetches ignored due to an invalid address
system.switch_cpus.iew.lsq.thread0.memOrderViolation          274                       # Number of memory ordering violations
system.switch_cpus.iew.lsq.thread0.rescheduledLoads            0                       # Number of loads that were rescheduled
system.switch_cpus.iew.lsq.thread0.squashedLoads       116211                       # Number of loads squashed
system.switch_cpus.iew.lsq.thread0.squashedStores        31190                       # Number of stores squashed
system.switch_cpus.iew.memOrderViolationEvents          274                       # Number of memory order violations
system.switch_cpus.iew.predictedNotTakenIncorrect        28379                       # Number of branches that were predicted not taken incorrectly
system.switch_cpus.iew.predictedTakenIncorrect         5480                       # Number of branches that were predicted taken incorrectly
system.switch_cpus.iew.wb_consumers          26912839                       # num instructions consuming a value
system.switch_cpus.iew.wb_count              16761785                       # cumulative count of insts written-back
system.switch_cpus.iew.wb_fanout             0.498526                       # average fanout of values written-back
system.switch_cpus.iew.wb_producers          13416741                       # num instructions producing a value
system.switch_cpus.iew.wb_rate               3.103594                       # insts written-back per cycle
system.switch_cpus.iew.wb_sent               16768797                       # cumulative count of insts sent to commit
system.switch_cpus.int_regfile_reads         29043607                       # number of integer regfile reads
system.switch_cpus.int_regfile_writes        13098584                       # number of integer regfile writes
system.switch_cpus.ipc                       1.851589                       # IPC: Instructions Per Cycle
system.switch_cpus.ipc_total                 1.851589                       # IPC: Total IPC of All Threads
system.switch_cpus.iq.FU_type_0::No_OpClass       100135      0.60%      0.60% # Type of FU issued
system.switch_cpus.iq.FU_type_0::IntAlu      10410800     61.92%     62.51% # Type of FU issued
system.switch_cpus.iq.FU_type_0::IntMult        86830      0.52%     63.03% # Type of FU issued
system.switch_cpus.iq.FU_type_0::IntDiv             0      0.00%     63.03% # Type of FU issued
system.switch_cpus.iq.FU_type_0::FloatAdd        35031      0.21%     63.24% # Type of FU issued
system.switch_cpus.iq.FU_type_0::FloatCmp            0      0.00%     63.24% # Type of FU issued
system.switch_cpus.iq.FU_type_0::FloatCvt            0      0.00%     63.24% # Type of FU issued
system.switch_cpus.iq.FU_type_0::FloatMult            0      0.00%     63.24% # Type of FU issued
system.switch_cpus.iq.FU_type_0::FloatMultAcc            0      0.00%     63.24% # Type of FU issued
system.switch_cpus.iq.FU_type_0::FloatDiv            0      0.00%     63.24% # Type of FU issued
system.switch_cpus.iq.FU_type_0::FloatMisc            0      0.00%     63.24% # Type of FU issued
system.switch_cpus.iq.FU_type_0::FloatSqrt            0      0.00%     63.24% # Type of FU issued
system.switch_cpus.iq.FU_type_0::SimdAdd        21092      0.13%     63.36% # Type of FU issued
system.switch_cpus.iq.FU_type_0::SimdAddAcc            0      0.00%     63.36% # Type of FU issued
system.switch_cpus.iq.FU_type_0::SimdAlu       342784      2.04%     65.40% # Type of FU issued
system.switch_cpus.iq.FU_type_0::SimdCmp            0      0.00%     65.40% # Type of FU issued
system.switch_cpus.iq.FU_type_0::SimdCvt       129124      0.77%     66.17% # Type of FU issued
system.switch_cpus.iq.FU_type_0::SimdMisc       161068      0.96%     67.13% # Type of FU issued
system.switch_cpus.iq.FU_type_0::SimdMult            0      0.00%     67.13% # Type of FU issued
system.switch_cpus.iq.FU_type_0::SimdMultAcc            0      0.00%     67.13% # Type of FU issued
system.switch_cpus.iq.FU_type_0::SimdShift        63352      0.38%     67.51% # Type of FU issued
system.switch_cpus.iq.FU_type_0::SimdShiftAcc            0      0.00%     67.51% # Type of FU issued
system.switch_cpus.iq.FU_type_0::SimdDiv            0      0.00%     67.51% # Type of FU issued
system.switch_cpus.iq.FU_type_0::SimdSqrt            0      0.00%     67.51% # Type of FU issued
system.switch_cpus.iq.FU_type_0::SimdFloatAdd       139066      0.83%     68.33% # Type of FU issued
system.switch_cpus.iq.FU_type_0::SimdFloatAlu            0      0.00%     68.33% # Type of FU issued
system.switch_cpus.iq.FU_type_0::SimdFloatCmp           48      0.00%     68.33% # Type of FU issued
system.switch_cpus.iq.FU_type_0::SimdFloatCvt       176473      1.05%     69.38% # Type of FU issued
system.switch_cpus.iq.FU_type_0::SimdFloatDiv        23339      0.14%     69.52% # Type of FU issued
system.switch_cpus.iq.FU_type_0::SimdFloatMisc            0      0.00%     69.52% # Type of FU issued
system.switch_cpus.iq.FU_type_0::SimdFloatMult        13135      0.08%     69.60% # Type of FU issued
system.switch_cpus.iq.FU_type_0::SimdFloatMultAcc            0      0.00%     69.60% # Type of FU issued
system.switch_cpus.iq.FU_type_0::SimdFloatSqrt            0      0.00%     69.60% # Type of FU issued
system.switch_cpus.iq.FU_type_0::SimdReduceAdd            0      0.00%     69.60% # Type of FU issued
system.switch_cpus.iq.FU_type_0::SimdReduceAlu            0      0.00%     69.60% # Type of FU issued
system.switch_cpus.iq.FU_type_0::SimdReduceCmp            0      0.00%     69.60% # Type of FU issued
system.switch_cpus.iq.FU_type_0::SimdFloatReduceAdd            0      0.00%     69.60% # Type of FU issued
system.switch_cpus.iq.FU_type_0::SimdFloatReduceCmp            0      0.00%     69.60% # Type of FU issued
system.switch_cpus.iq.FU_type_0::SimdAes            0      0.00%     69.60% # Type of FU issued
system.switch_cpus.iq.FU_type_0::SimdAesMix            0      0.00%     69.60% # Type of FU issued
system.switch_cpus.iq.FU_type_0::SimdSha1Hash            0      0.00%     69.60% # Type of FU issued
system.switch_cpus.iq.FU_type_0::SimdSha1Hash2            0      0.00%     69.60% # Type of FU issued
system.switch_cpus.iq.FU_type_0::SimdSha256Hash            0      0.00%     69.60% # Type of FU issued
system.switch_cpus.iq.FU_type_0::SimdSha256Hash2            0      0.00%     69.60% # Type of FU issued
system.switch_cpus.iq.FU_type_0::SimdShaSigma2            0      0.00%     69.60% # Type of FU issued
system.switch_cpus.iq.FU_type_0::SimdShaSigma3            0      0.00%     69.60% # Type of FU issued
system.switch_cpus.iq.FU_type_0::SimdPredAlu            0      0.00%     69.60% # Type of FU issued
system.switch_cpus.iq.FU_type_0::MemRead      3417477     20.33%     89.93% # Type of FU issued
system.switch_cpus.iq.FU_type_0::MemWrite      1413611      8.41%     98.33% # Type of FU issued
system.switch_cpus.iq.FU_type_0::FloatMemRead       279697      1.66%    100.00% # Type of FU issued
system.switch_cpus.iq.FU_type_0::FloatMemWrite          501      0.00%    100.00% # Type of FU issued
system.switch_cpus.iq.FU_type_0::IprAccess            0      0.00%    100.00% # Type of FU issued
system.switch_cpus.iq.FU_type_0::InstPrefetch            0      0.00%    100.00% # Type of FU issued
system.switch_cpus.iq.FU_type_0::total       16813563                       # Type of FU issued
system.switch_cpus.iq.fp_alu_accesses         1586042                       # Number of floating point alu accesses
system.switch_cpus.iq.fp_inst_queue_reads      3150181                       # Number of floating instruction queue reads
system.switch_cpus.iq.fp_inst_queue_wakeup_accesses      1546683                       # Number of floating instruction queue wakeup accesses
system.switch_cpus.iq.fp_inst_queue_writes      1898366                       # Number of floating instruction queue writes
system.switch_cpus.iq.fu_busy_cnt              189931                       # FU busy when requested
system.switch_cpus.iq.fu_busy_rate           0.011296                       # FU busy rate (busy events/executed inst)
system.switch_cpus.iq.fu_full::No_OpClass            0      0.00%      0.00% # attempts to use FU when none available
system.switch_cpus.iq.fu_full::IntAlu          117109     61.66%     61.66% # attempts to use FU when none available
system.switch_cpus.iq.fu_full::IntMult              0      0.00%     61.66% # attempts to use FU when none available
system.switch_cpus.iq.fu_full::IntDiv               0      0.00%     61.66% # attempts to use FU when none available
system.switch_cpus.iq.fu_full::FloatAdd             0      0.00%     61.66% # attempts to use FU when none available
system.switch_cpus.iq.fu_full::FloatCmp             0      0.00%     61.66% # attempts to use FU when none available
system.switch_cpus.iq.fu_full::FloatCvt             0      0.00%     61.66% # attempts to use FU when none available
system.switch_cpus.iq.fu_full::FloatMult            0      0.00%     61.66% # attempts to use FU when none available
system.switch_cpus.iq.fu_full::FloatMultAcc            0      0.00%     61.66% # attempts to use FU when none available
system.switch_cpus.iq.fu_full::FloatDiv             0      0.00%     61.66% # attempts to use FU when none available
system.switch_cpus.iq.fu_full::FloatMisc            0      0.00%     61.66% # attempts to use FU when none available
system.switch_cpus.iq.fu_full::FloatSqrt            0      0.00%     61.66% # attempts to use FU when none available
system.switch_cpus.iq.fu_full::SimdAdd              0      0.00%     61.66% # attempts to use FU when none available
system.switch_cpus.iq.fu_full::SimdAddAcc            0      0.00%     61.66% # attempts to use FU when none available
system.switch_cpus.iq.fu_full::SimdAlu            121      0.06%     61.72% # attempts to use FU when none available
system.switch_cpus.iq.fu_full::SimdCmp              0      0.00%     61.72% # attempts to use FU when none available
system.switch_cpus.iq.fu_full::SimdCvt           3363      1.77%     63.49% # attempts to use FU when none available
system.switch_cpus.iq.fu_full::SimdMisc            25      0.01%     63.51% # attempts to use FU when none available
system.switch_cpus.iq.fu_full::SimdMult             0      0.00%     63.51% # attempts to use FU when none available
system.switch_cpus.iq.fu_full::SimdMultAcc            0      0.00%     63.51% # attempts to use FU when none available
system.switch_cpus.iq.fu_full::SimdShift            0      0.00%     63.51% # attempts to use FU when none available
system.switch_cpus.iq.fu_full::SimdShiftAcc            0      0.00%     63.51% # attempts to use FU when none available
system.switch_cpus.iq.fu_full::SimdDiv              0      0.00%     63.51% # attempts to use FU when none available
system.switch_cpus.iq.fu_full::SimdSqrt             0      0.00%     63.51% # attempts to use FU when none available
system.switch_cpus.iq.fu_full::SimdFloatAdd         2274      1.20%     64.70% # attempts to use FU when none available
system.switch_cpus.iq.fu_full::SimdFloatAlu            0      0.00%     64.70% # attempts to use FU when none available
system.switch_cpus.iq.fu_full::SimdFloatCmp            0      0.00%     64.70% # attempts to use FU when none available
system.switch_cpus.iq.fu_full::SimdFloatCvt         9951      5.24%     69.94% # attempts to use FU when none available
system.switch_cpus.iq.fu_full::SimdFloatDiv            0      0.00%     69.94% # attempts to use FU when none available
system.switch_cpus.iq.fu_full::SimdFloatMisc            0      0.00%     69.94% # attempts to use FU when none available
system.switch_cpus.iq.fu_full::SimdFloatMult            0      0.00%     69.94% # attempts to use FU when none available
system.switch_cpus.iq.fu_full::SimdFloatMultAcc            0      0.00%     69.94% # attempts to use FU when none available
system.switch_cpus.iq.fu_full::SimdFloatSqrt            0      0.00%     69.94% # attempts to use FU when none available
system.switch_cpus.iq.fu_full::SimdReduceAdd            0      0.00%     69.94% # attempts to use FU when none available
system.switch_cpus.iq.fu_full::SimdReduceAlu            0      0.00%     69.94% # attempts to use FU when none available
system.switch_cpus.iq.fu_full::SimdReduceCmp            0      0.00%     69.94% # attempts to use FU when none available
system.switch_cpus.iq.fu_full::SimdFloatReduceAdd            0      0.00%     69.94% # attempts to use FU when none available
system.switch_cpus.iq.fu_full::SimdFloatReduceCmp            0      0.00%     69.94% # attempts to use FU when none available
system.switch_cpus.iq.fu_full::SimdAes              0      0.00%     69.94% # attempts to use FU when none available
system.switch_cpus.iq.fu_full::SimdAesMix            0      0.00%     69.94% # attempts to use FU when none available
system.switch_cpus.iq.fu_full::SimdSha1Hash            0      0.00%     69.94% # attempts to use FU when none available
system.switch_cpus.iq.fu_full::SimdSha1Hash2            0      0.00%     69.94% # attempts to use FU when none available
system.switch_cpus.iq.fu_full::SimdSha256Hash            0      0.00%     69.94% # attempts to use FU when none available
system.switch_cpus.iq.fu_full::SimdSha256Hash2            0      0.00%     69.94% # attempts to use FU when none available
system.switch_cpus.iq.fu_full::SimdShaSigma2            0      0.00%     69.94% # attempts to use FU when none available
system.switch_cpus.iq.fu_full::SimdShaSigma3            0      0.00%     69.94% # attempts to use FU when none available
system.switch_cpus.iq.fu_full::SimdPredAlu            0      0.00%     69.94% # attempts to use FU when none available
system.switch_cpus.iq.fu_full::MemRead          49798     26.22%     96.16% # attempts to use FU when none available
system.switch_cpus.iq.fu_full::MemWrite           518      0.27%     96.43% # attempts to use FU when none available
system.switch_cpus.iq.fu_full::FloatMemRead         6772      3.57%    100.00% # attempts to use FU when none available
system.switch_cpus.iq.fu_full::FloatMemWrite            0      0.00%    100.00% # attempts to use FU when none available
system.switch_cpus.iq.fu_full::IprAccess            0      0.00%    100.00% # attempts to use FU when none available
system.switch_cpus.iq.fu_full::InstPrefetch            0      0.00%    100.00% # attempts to use FU when none available
system.switch_cpus.iq.int_alu_accesses       15317317                       # Number of integer alu accesses
system.switch_cpus.iq.int_inst_queue_reads     36133397                       # Number of integer instruction queue reads
system.switch_cpus.iq.int_inst_queue_wakeup_accesses     15215102                       # Number of integer instruction queue wakeup accesses
system.switch_cpus.iq.int_inst_queue_writes     16636266                       # Number of integer instruction queue writes
system.switch_cpus.iq.iqInstsAdded           17286942                       # Number of instructions added to the IQ (excludes non-spec)
system.switch_cpus.iq.iqInstsIssued          16813563                       # Number of instructions issued
system.switch_cpus.iq.iqNonSpecInstsAdded           13                       # Number of non-speculative instructions added to the IQ
system.switch_cpus.iq.iqSquashedInstsExamined      1247406                       # Number of squashed instructions iterated over during squash; mainly for profiling
system.switch_cpus.iq.iqSquashedInstsIssued        75877                       # Number of squashed instructions issued
system.switch_cpus.iq.iqSquashedNonSpecRemoved           13                       # Number of squashed non-spec instructions that were removed
system.switch_cpus.iq.iqSquashedOperandsExamined      1764922                       # Number of squashed operands that are examined and possibly removed from graph
system.switch_cpus.iq.issued_per_cycle::samples      5390648                       # Number of insts issued each cycle
system.switch_cpus.iq.issued_per_cycle::mean     3.119024                       # Number of insts issued each cycle
system.switch_cpus.iq.issued_per_cycle::stdev     2.250223                       # Number of insts issued each cycle
system.switch_cpus.iq.issued_per_cycle::underflows            0      0.00%      0.00% # Number of insts issued each cycle
system.switch_cpus.iq.issued_per_cycle::0       801488     14.87%     14.87% # Number of insts issued each cycle
system.switch_cpus.iq.issued_per_cycle::1       642601     11.92%     26.79% # Number of insts issued each cycle
system.switch_cpus.iq.issued_per_cycle::2       932261     17.29%     44.08% # Number of insts issued each cycle
system.switch_cpus.iq.issued_per_cycle::3       821716     15.24%     59.33% # Number of insts issued each cycle
system.switch_cpus.iq.issued_per_cycle::4       730222     13.55%     72.87% # Number of insts issued each cycle
system.switch_cpus.iq.issued_per_cycle::5       611876     11.35%     84.22% # Number of insts issued each cycle
system.switch_cpus.iq.issued_per_cycle::6       350842      6.51%     90.73% # Number of insts issued each cycle
system.switch_cpus.iq.issued_per_cycle::7       241164      4.47%     95.21% # Number of insts issued each cycle
system.switch_cpus.iq.issued_per_cycle::8       258478      4.79%    100.00% # Number of insts issued each cycle
system.switch_cpus.iq.issued_per_cycle::overflows            0      0.00%    100.00% # Number of insts issued each cycle
system.switch_cpus.iq.issued_per_cycle::min_value            0                       # Number of insts issued each cycle
system.switch_cpus.iq.issued_per_cycle::max_value            8                       # Number of insts issued each cycle
system.switch_cpus.iq.issued_per_cycle::total      5390648                       # Number of insts issued each cycle
system.switch_cpus.iq.rate                   3.113181                       # Inst issue rate
system.switch_cpus.iq.vec_alu_accesses              0                       # Number of vector alu accesses
system.switch_cpus.iq.vec_inst_queue_reads            0                       # Number of vector instruction queue reads
system.switch_cpus.iq.vec_inst_queue_wakeup_accesses            0                       # Number of vector instruction queue wakeup accesses
system.switch_cpus.iq.vec_inst_queue_writes            0                       # Number of vector instruction queue writes
system.switch_cpus.itb.rdAccesses                   0                       # TLB accesses on read requests
system.switch_cpus.itb.rdMisses                     0                       # TLB misses on read requests
system.switch_cpus.itb.wrAccesses              855801                       # TLB accesses on write requests
system.switch_cpus.itb.wrMisses                    43                       # TLB misses on write requests
system.switch_cpus.memDep0.conflictingLoads       419925                       # Number of conflicting loads.
system.switch_cpus.memDep0.conflictingStores       373793                       # Number of conflicting stores.
system.switch_cpus.memDep0.insertedLoads      3721836                       # Number of loads inserted to the mem dependence unit.
system.switch_cpus.memDep0.insertedStores      1429390                       # Number of stores inserted to the mem dependence unit.
system.switch_cpus.misc_regfile_reads         6735424                       # number of misc regfile reads
system.switch_cpus.misc_regfile_writes              1                       # number of misc regfile writes
system.switch_cpus.numCycles                  5400766                       # number of cpu cycles simulated
system.switch_cpus.numWorkItemsCompleted            0                       # number of work items this cpu completed
system.switch_cpus.numWorkItemsStarted              0                       # number of work items this cpu started
system.switch_cpus.rename.BlockCycles          215959                       # Number of cycles rename is blocking
system.switch_cpus.rename.CommittedMaps      20732556                       # Number of HB maps that are committed
system.switch_cpus.rename.IQFullEvents         147899                       # Number of times rename has blocked due to IQ full
system.switch_cpus.rename.IdleCycles           870636                       # Number of cycles rename is idle
system.switch_cpus.rename.LQFullEvents         634667                       # Number of times rename has blocked due to LQ full
system.switch_cpus.rename.ROBFullEvents          2121                       # Number of times rename has blocked due to ROB full
system.switch_cpus.rename.RenameLookups      54962812                       # Number of register rename lookups that rename has made
system.switch_cpus.rename.RenamedInsts       17519120                       # Number of instructions processed by rename
system.switch_cpus.rename.RenamedOperands     22488251                       # Number of destination operands rename has renamed
system.switch_cpus.rename.RunCycles           2006559                       # Number of cycles rename is running
system.switch_cpus.rename.SQFullEvents        1252316                       # Number of times rename has blocked due to SQ full
system.switch_cpus.rename.SquashCycles          20687                       # Number of cycles rename is squashing
system.switch_cpus.rename.UnblockCycles       2276799                       # Number of cycles rename is unblocking
system.switch_cpus.rename.UndoneMaps          1755554                       # Number of HB maps that are undone due to squashing
system.switch_cpus.rename.fp_rename_lookups      3012759                       # Number of floating rename lookups
system.switch_cpus.rename.int_rename_lookups     30060692                       # Number of integer rename lookups
system.switch_cpus.rename.serializeStallCycles            0                       # count of cycles rename stalled for serializing inst
system.switch_cpus.rename.serializingInsts            0                       # count of serializing insts renamed
system.switch_cpus.rename.skidInsts           4061331                       # count of insts added to the skid buffer
system.switch_cpus.rename.tempSerializingInsts            0                       # count of temporary serializing insts renamed
system.switch_cpus.rob.rob_reads             21242957                       # The number of ROB reads
system.switch_cpus.rob.rob_writes            34741665                       # The number of ROB writes
system.switch_cpus.timesIdled                     156                       # Number of times that the entire CPU went into an idle state and unscheduled itself
system.tol2bus.snoop_filter.hit_multi_requests            0                       # Number of requests hitting in the snoop filter with multiple (>1) holders of the requested data.
system.tol2bus.snoop_filter.hit_multi_snoops            0                       # Number of snoops hitting in the snoop filter with multiple (>1) holders of the requested data.
system.tol2bus.snoop_filter.hit_single_requests        24684                       # Number of requests hitting in the snoop filter with a single holder of the requested data.
system.tol2bus.snoop_filter.hit_single_snoops         1923                       # Number of snoops hitting in the snoop filter with a single holder of the requested data.
system.tol2bus.snoop_filter.tot_requests        50514                       # Total number of requests made to the snoop filter.
system.tol2bus.snoop_filter.tot_snoops           1923                       # Total number of snoops made to the snoop filter.
system.membus.pwrStateResidencyTicks::UNDEFINED 81939768651000                       # Cumulative time (in ticks) in various power states
system.membus.trans_dist::ReadResp                953                       # Transaction distribution
system.membus.trans_dist::WritebackDirty         1411                       # Transaction distribution
system.membus.trans_dist::CleanEvict              316                       # Transaction distribution
system.membus.trans_dist::ReadExReq              3099                       # Transaction distribution
system.membus.trans_dist::ReadExResp             3099                       # Transaction distribution
system.membus.trans_dist::ReadSharedReq           953                       # Transaction distribution
system.membus.pkt_count_system.l2.mem_side::system.mem_ctrls.port         9831                       # Packet count per connected master and slave (bytes)
system.membus.pkt_count_system.l2.mem_side::total         9831                       # Packet count per connected master and slave (bytes)
system.membus.pkt_count::total                   9831                       # Packet count per connected master and slave (bytes)
system.membus.pkt_size_system.l2.mem_side::system.mem_ctrls.port       349632                       # Cumulative packet size per connected master and slave (bytes)
system.membus.pkt_size_system.l2.mem_side::total       349632                       # Cumulative packet size per connected master and slave (bytes)
system.membus.pkt_size::total                  349632                       # Cumulative packet size per connected master and slave (bytes)
system.membus.snoops                                0                       # Total snoops (count)
system.membus.snoopTraffic                          0                       # Total snoop traffic (bytes)
system.membus.snoop_fanout::samples              4052                       # Request fanout histogram
system.membus.snoop_fanout::mean                    0                       # Request fanout histogram
system.membus.snoop_fanout::stdev                   0                       # Request fanout histogram
system.membus.snoop_fanout::underflows              0      0.00%      0.00% # Request fanout histogram
system.membus.snoop_fanout::0                    4052    100.00%    100.00% # Request fanout histogram
system.membus.snoop_fanout::1                       0      0.00%    100.00% # Request fanout histogram
system.membus.snoop_fanout::overflows               0      0.00%    100.00% # Request fanout histogram
system.membus.snoop_fanout::min_value               0                       # Request fanout histogram
system.membus.snoop_fanout::max_value               0                       # Request fanout histogram
system.membus.snoop_fanout::total                4052                       # Request fanout histogram
system.membus.reqLayer2.occupancy            12672000                       # Layer occupancy (ticks)
system.membus.reqLayer2.utilization               0.5                       # Layer utilization (%)
system.membus.respLayer1.occupancy           21496750                       # Layer occupancy (ticks)
system.membus.respLayer1.utilization              0.8                       # Layer utilization (%)
system.switch_cpus.pwrStateResidencyTicks::OFF   2700393500                       # Cumulative time (in ticks) in various power states
system.switch_cpus.dtb.walker.pwrStateResidencyTicks::UNDEFINED 81939768651000                       # Cumulative time (in ticks) in various power states
system.switch_cpus.itb.walker.pwrStateResidencyTicks::UNDEFINED 81939768651000                       # Cumulative time (in ticks) in various power states
system.tol2bus.pwrStateResidencyTicks::UNDEFINED 81939768651000                       # Cumulative time (in ticks) in various power states
system.tol2bus.trans_dist::ReadResp              6514                       # Transaction distribution
system.tol2bus.trans_dist::WritebackDirty        20381                       # Transaction distribution
system.tol2bus.trans_dist::WritebackClean          263                       # Transaction distribution
system.tol2bus.trans_dist::CleanEvict            7430                       # Transaction distribution
system.tol2bus.trans_dist::ReadExReq            19316                       # Transaction distribution
system.tol2bus.trans_dist::ReadExResp           19316                       # Transaction distribution
system.tol2bus.trans_dist::ReadCleanReq           385                       # Transaction distribution
system.tol2bus.trans_dist::ReadSharedReq         6129                       # Transaction distribution
system.tol2bus.pkt_count_system.cpu.icache.mem_side::system.l2.cpu_side         1033                       # Packet count per connected master and slave (bytes)
system.tol2bus.pkt_count_system.cpu.dcache.mem_side::system.l2.cpu_side        75311                       # Packet count per connected master and slave (bytes)
system.tol2bus.pkt_count::total                 76344                       # Packet count per connected master and slave (bytes)
system.tol2bus.pkt_size_system.cpu.icache.mem_side::system.l2.cpu_side        41472                       # Cumulative packet size per connected master and slave (bytes)
system.tol2bus.pkt_size_system.cpu.dcache.mem_side::system.l2.cpu_side      2842560                       # Cumulative packet size per connected master and slave (bytes)
system.tol2bus.pkt_size::total                2884032                       # Cumulative packet size per connected master and slave (bytes)
system.tol2bus.snoops                            3390                       # Total snoops (count)
system.tol2bus.snoopTraffic                     90304                       # Total snoop traffic (bytes)
system.tol2bus.snoop_fanout::samples            29220                       # Request fanout histogram
system.tol2bus.snoop_fanout::mean            0.065811                       # Request fanout histogram
system.tol2bus.snoop_fanout::stdev           0.247956                       # Request fanout histogram
system.tol2bus.snoop_fanout::underflows             0      0.00%      0.00% # Request fanout histogram
system.tol2bus.snoop_fanout::0                  27297     93.42%     93.42% # Request fanout histogram
system.tol2bus.snoop_fanout::1                   1923      6.58%    100.00% # Request fanout histogram
system.tol2bus.snoop_fanout::2                      0      0.00%    100.00% # Request fanout histogram
system.tol2bus.snoop_fanout::3                      0      0.00%    100.00% # Request fanout histogram
system.tol2bus.snoop_fanout::4                      0      0.00%    100.00% # Request fanout histogram
system.tol2bus.snoop_fanout::overflows              0      0.00%    100.00% # Request fanout histogram
system.tol2bus.snoop_fanout::min_value              0                       # Request fanout histogram
system.tol2bus.snoop_fanout::max_value              1                       # Request fanout histogram
system.tol2bus.snoop_fanout::total              29220                       # Request fanout histogram
system.tol2bus.reqLayer0.occupancy           44486500                       # Layer occupancy (ticks)
system.tol2bus.reqLayer0.utilization              1.6                       # Layer utilization (%)
system.tol2bus.respLayer1.occupancy          38158500                       # Layer occupancy (ticks)
system.tol2bus.respLayer1.utilization             1.4                       # Layer utilization (%)
system.tol2bus.respLayer0.occupancy            577497                       # Layer occupancy (ticks)
system.tol2bus.respLayer0.utilization             0.0                       # Layer utilization (%)
system.voltage_domain.voltage                       1                       # Voltage in Volts
system.clk_domain.clock                          1000                       # Clock period in ticks
system.l2.pwrStateResidencyTicks::UNDEFINED 81939768651000                       # Cumulative time (in ticks) in various power states
system.l2.demand_hits::.switch_cpus.inst          249                       # number of demand (read+write) hits
system.l2.demand_hits::.switch_cpus.data        21529                       # number of demand (read+write) hits
system.l2.demand_hits::total                    21778                       # number of demand (read+write) hits
system.l2.overall_hits::.switch_cpus.inst          249                       # number of overall hits
system.l2.overall_hits::.switch_cpus.data        21529                       # number of overall hits
system.l2.overall_hits::total                   21778                       # number of overall hits
system.l2.demand_misses::.cpu.inst                  1                       # number of demand (read+write) misses
system.l2.demand_misses::.cpu.data                  6                       # number of demand (read+write) misses
system.l2.demand_misses::.switch_cpus.inst          135                       # number of demand (read+write) misses
system.l2.demand_misses::.switch_cpus.data         3910                       # number of demand (read+write) misses
system.l2.demand_misses::total                   4052                       # number of demand (read+write) misses
system.l2.overall_misses::.cpu.inst                 1                       # number of overall misses
system.l2.overall_misses::.cpu.data                 6                       # number of overall misses
system.l2.overall_misses::.switch_cpus.inst          135                       # number of overall misses
system.l2.overall_misses::.switch_cpus.data         3910                       # number of overall misses
system.l2.overall_misses::total                  4052                       # number of overall misses
system.l2.demand_miss_latency::.switch_cpus.inst     11273500                       # number of demand (read+write) miss cycles
system.l2.demand_miss_latency::.switch_cpus.data    301975000                       # number of demand (read+write) miss cycles
system.l2.demand_miss_latency::total        313248500                       # number of demand (read+write) miss cycles
system.l2.overall_miss_latency::.switch_cpus.inst     11273500                       # number of overall miss cycles
system.l2.overall_miss_latency::.switch_cpus.data    301975000                       # number of overall miss cycles
system.l2.overall_miss_latency::total       313248500                       # number of overall miss cycles
system.l2.demand_accesses::.cpu.inst                1                       # number of demand (read+write) accesses
system.l2.demand_accesses::.cpu.data                6                       # number of demand (read+write) accesses
system.l2.demand_accesses::.switch_cpus.inst          384                       # number of demand (read+write) accesses
system.l2.demand_accesses::.switch_cpus.data        25439                       # number of demand (read+write) accesses
system.l2.demand_accesses::total                25830                       # number of demand (read+write) accesses
system.l2.overall_accesses::.cpu.inst               1                       # number of overall (read+write) accesses
system.l2.overall_accesses::.cpu.data               6                       # number of overall (read+write) accesses
system.l2.overall_accesses::.switch_cpus.inst          384                       # number of overall (read+write) accesses
system.l2.overall_accesses::.switch_cpus.data        25439                       # number of overall (read+write) accesses
system.l2.overall_accesses::total               25830                       # number of overall (read+write) accesses
system.l2.demand_miss_rate::.cpu.inst               1                       # miss rate for demand accesses
system.l2.demand_miss_rate::.cpu.data               1                       # miss rate for demand accesses
system.l2.demand_miss_rate::.switch_cpus.inst     0.351562                       # miss rate for demand accesses
system.l2.demand_miss_rate::.switch_cpus.data     0.153701                       # miss rate for demand accesses
system.l2.demand_miss_rate::total            0.156872                       # miss rate for demand accesses
system.l2.overall_miss_rate::.cpu.inst              1                       # miss rate for overall accesses
system.l2.overall_miss_rate::.cpu.data              1                       # miss rate for overall accesses
system.l2.overall_miss_rate::.switch_cpus.inst     0.351562                       # miss rate for overall accesses
system.l2.overall_miss_rate::.switch_cpus.data     0.153701                       # miss rate for overall accesses
system.l2.overall_miss_rate::total           0.156872                       # miss rate for overall accesses
system.l2.demand_avg_miss_latency::.switch_cpus.inst 83507.407407                       # average overall miss latency
system.l2.demand_avg_miss_latency::.switch_cpus.data 77231.457801                       # average overall miss latency
system.l2.demand_avg_miss_latency::total 77307.132280                       # average overall miss latency
system.l2.overall_avg_miss_latency::.switch_cpus.inst 83507.407407                       # average overall miss latency
system.l2.overall_avg_miss_latency::.switch_cpus.data 77231.457801                       # average overall miss latency
system.l2.overall_avg_miss_latency::total 77307.132280                       # average overall miss latency
system.l2.blocked_cycles::no_mshrs                  0                       # number of cycles access was blocked
system.l2.blocked_cycles::no_targets                0                       # number of cycles access was blocked
system.l2.blocked::no_mshrs                         0                       # number of cycles access was blocked
system.l2.blocked::no_targets                       0                       # number of cycles access was blocked
system.l2.avg_blocked_cycles::no_mshrs            nan                       # average number of cycles each access was blocked
system.l2.avg_blocked_cycles::no_targets          nan                       # average number of cycles each access was blocked
system.l2.writebacks::.writebacks                1411                       # number of writebacks
system.l2.writebacks::total                      1411                       # number of writebacks
system.l2.demand_mshr_misses::.switch_cpus.inst          135                       # number of demand (read+write) MSHR misses
system.l2.demand_mshr_misses::.switch_cpus.data         3910                       # number of demand (read+write) MSHR misses
system.l2.demand_mshr_misses::total              4045                       # number of demand (read+write) MSHR misses
system.l2.overall_mshr_misses::.switch_cpus.inst          135                       # number of overall MSHR misses
system.l2.overall_mshr_misses::.switch_cpus.data         3910                       # number of overall MSHR misses
system.l2.overall_mshr_misses::total             4045                       # number of overall MSHR misses
system.l2.demand_mshr_miss_latency::.switch_cpus.inst      9923500                       # number of demand (read+write) MSHR miss cycles
system.l2.demand_mshr_miss_latency::.switch_cpus.data    262875000                       # number of demand (read+write) MSHR miss cycles
system.l2.demand_mshr_miss_latency::total    272798500                       # number of demand (read+write) MSHR miss cycles
system.l2.overall_mshr_miss_latency::.switch_cpus.inst      9923500                       # number of overall MSHR miss cycles
system.l2.overall_mshr_miss_latency::.switch_cpus.data    262875000                       # number of overall MSHR miss cycles
system.l2.overall_mshr_miss_latency::total    272798500                       # number of overall MSHR miss cycles
system.l2.demand_mshr_miss_rate::.switch_cpus.inst     0.351562                       # mshr miss rate for demand accesses
system.l2.demand_mshr_miss_rate::.switch_cpus.data     0.153701                       # mshr miss rate for demand accesses
system.l2.demand_mshr_miss_rate::total       0.156601                       # mshr miss rate for demand accesses
system.l2.overall_mshr_miss_rate::.switch_cpus.inst     0.351562                       # mshr miss rate for overall accesses
system.l2.overall_mshr_miss_rate::.switch_cpus.data     0.153701                       # mshr miss rate for overall accesses
system.l2.overall_mshr_miss_rate::total      0.156601                       # mshr miss rate for overall accesses
system.l2.demand_avg_mshr_miss_latency::.switch_cpus.inst 73507.407407                       # average overall mshr miss latency
system.l2.demand_avg_mshr_miss_latency::.switch_cpus.data 67231.457801                       # average overall mshr miss latency
system.l2.demand_avg_mshr_miss_latency::total 67440.914710                       # average overall mshr miss latency
system.l2.overall_avg_mshr_miss_latency::.switch_cpus.inst 73507.407407                       # average overall mshr miss latency
system.l2.overall_avg_mshr_miss_latency::.switch_cpus.data 67231.457801                       # average overall mshr miss latency
system.l2.overall_avg_mshr_miss_latency::total 67440.914710                       # average overall mshr miss latency
system.l2.replacements                           3390                       # number of replacements
system.l2.WritebackDirty_hits::.writebacks        18970                       # number of WritebackDirty hits
system.l2.WritebackDirty_hits::total            18970                       # number of WritebackDirty hits
system.l2.WritebackDirty_accesses::.writebacks        18970                       # number of WritebackDirty accesses(hits+misses)
system.l2.WritebackDirty_accesses::total        18970                       # number of WritebackDirty accesses(hits+misses)
system.l2.WritebackClean_hits::.writebacks          263                       # number of WritebackClean hits
system.l2.WritebackClean_hits::total              263                       # number of WritebackClean hits
system.l2.WritebackClean_accesses::.writebacks          263                       # number of WritebackClean accesses(hits+misses)
system.l2.WritebackClean_accesses::total          263                       # number of WritebackClean accesses(hits+misses)
system.l2.CleanEvict_mshr_misses::.writebacks          260                       # number of CleanEvict MSHR misses
system.l2.CleanEvict_mshr_misses::total           260                       # number of CleanEvict MSHR misses
system.l2.CleanEvict_mshr_miss_rate::.writebacks          inf                       # mshr miss rate for CleanEvict accesses
system.l2.CleanEvict_mshr_miss_rate::total          inf                       # mshr miss rate for CleanEvict accesses
system.l2.ReadExReq_hits::.switch_cpus.data        16217                       # number of ReadExReq hits
system.l2.ReadExReq_hits::total                 16217                       # number of ReadExReq hits
system.l2.ReadExReq_misses::.cpu.data               1                       # number of ReadExReq misses
system.l2.ReadExReq_misses::.switch_cpus.data         3098                       # number of ReadExReq misses
system.l2.ReadExReq_misses::total                3099                       # number of ReadExReq misses
system.l2.ReadExReq_miss_latency::.switch_cpus.data    234191500                       # number of ReadExReq miss cycles
system.l2.ReadExReq_miss_latency::total     234191500                       # number of ReadExReq miss cycles
system.l2.ReadExReq_accesses::.cpu.data             1                       # number of ReadExReq accesses(hits+misses)
system.l2.ReadExReq_accesses::.switch_cpus.data        19315                       # number of ReadExReq accesses(hits+misses)
system.l2.ReadExReq_accesses::total             19316                       # number of ReadExReq accesses(hits+misses)
system.l2.ReadExReq_miss_rate::.cpu.data            1                       # miss rate for ReadExReq accesses
system.l2.ReadExReq_miss_rate::.switch_cpus.data     0.160393                       # miss rate for ReadExReq accesses
system.l2.ReadExReq_miss_rate::total         0.160437                       # miss rate for ReadExReq accesses
system.l2.ReadExReq_avg_miss_latency::.switch_cpus.data 75594.415752                       # average ReadExReq miss latency
system.l2.ReadExReq_avg_miss_latency::total 75570.022588                       # average ReadExReq miss latency
system.l2.ReadExReq_mshr_misses::.switch_cpus.data         3098                       # number of ReadExReq MSHR misses
system.l2.ReadExReq_mshr_misses::total           3098                       # number of ReadExReq MSHR misses
system.l2.ReadExReq_mshr_miss_latency::.switch_cpus.data    203211500                       # number of ReadExReq MSHR miss cycles
system.l2.ReadExReq_mshr_miss_latency::total    203211500                       # number of ReadExReq MSHR miss cycles
system.l2.ReadExReq_mshr_miss_rate::.switch_cpus.data     0.160393                       # mshr miss rate for ReadExReq accesses
system.l2.ReadExReq_mshr_miss_rate::total     0.160385                       # mshr miss rate for ReadExReq accesses
system.l2.ReadExReq_avg_mshr_miss_latency::.switch_cpus.data 65594.415752                       # average ReadExReq mshr miss latency
system.l2.ReadExReq_avg_mshr_miss_latency::total 65594.415752                       # average ReadExReq mshr miss latency
system.l2.ReadCleanReq_hits::.switch_cpus.inst          249                       # number of ReadCleanReq hits
system.l2.ReadCleanReq_hits::total                249                       # number of ReadCleanReq hits
system.l2.ReadCleanReq_misses::.cpu.inst            1                       # number of ReadCleanReq misses
system.l2.ReadCleanReq_misses::.switch_cpus.inst          135                       # number of ReadCleanReq misses
system.l2.ReadCleanReq_misses::total              136                       # number of ReadCleanReq misses
system.l2.ReadCleanReq_miss_latency::.switch_cpus.inst     11273500                       # number of ReadCleanReq miss cycles
system.l2.ReadCleanReq_miss_latency::total     11273500                       # number of ReadCleanReq miss cycles
system.l2.ReadCleanReq_accesses::.cpu.inst            1                       # number of ReadCleanReq accesses(hits+misses)
system.l2.ReadCleanReq_accesses::.switch_cpus.inst          384                       # number of ReadCleanReq accesses(hits+misses)
system.l2.ReadCleanReq_accesses::total            385                       # number of ReadCleanReq accesses(hits+misses)
system.l2.ReadCleanReq_miss_rate::.cpu.inst            1                       # miss rate for ReadCleanReq accesses
system.l2.ReadCleanReq_miss_rate::.switch_cpus.inst     0.351562                       # miss rate for ReadCleanReq accesses
[...]
system.cpu.itb_walker_cache.blocked_cycles::no_targets            0                       # number of cycles access was blocked
system.cpu.itb_walker_cache.blocked::no_mshrs            0                       # number of cycles access was blocked
system.cpu.itb_walker_cache.blocked::no_targets            0                       # number of cycles access was blocked
system.cpu.itb_walker_cache.avg_blocked_cycles::no_mshrs          nan                       # average number of cycles each access was blocked
system.cpu.itb_walker_cache.avg_blocked_cycles::no_targets          nan                       # average number of cycles each access was blocked
system.cpu.itb_walker_cache.replacements            0                       # number of replacements
system.cpu.itb_walker_cache.tags.pwrStateResidencyTicks::UNDEFINED 81947521119500                       # Cumulative time (in ticks) in various power states
system.cpu.itb_walker_cache.tags.tagsinuse            0                       # Cycle average of tags in use
system.cpu.itb_walker_cache.tags.total_refs            0                       # Total number of references to valid blocks.
system.cpu.itb_walker_cache.tags.sampled_refs            0                       # Sample count of references to valid blocks.
system.cpu.itb_walker_cache.tags.avg_refs          nan                       # Average number of references to valid blocks.
system.cpu.itb_walker_cache.tags.warmup_cycle            0                       # Cycle when the warmup percentage was hit.
system.cpu.itb_walker_cache.tags.tag_accesses            0                       # Number of tag accesses
system.cpu.itb_walker_cache.tags.data_accesses            0                       # Number of data accesses
system.cpu.itb.walker.pwrStateResidencyTicks::UNDEFINED 81947521119500                       # Cumulative time (in ticks) in various power states
system.cpu.dtb_walker_cache.pwrStateResidencyTicks::UNDEFINED 81947521119500                       # Cumulative time (in ticks) in various power states
system.cpu.dtb_walker_cache.blocked_cycles::no_mshrs            0                       # number of cycles access was blocked
system.cpu.dtb_walker_cache.blocked_cycles::no_targets            0                       # number of cycles access was blocked
system.cpu.dtb_walker_cache.blocked::no_mshrs            0                       # number of cycles access was blocked
system.cpu.dtb_walker_cache.blocked::no_targets            0                       # number of cycles access was blocked
system.cpu.dtb_walker_cache.avg_blocked_cycles::no_mshrs          nan                       # average number of cycles each access was blocked
system.cpu.dtb_walker_cache.avg_blocked_cycles::no_targets          nan                       # average number of cycles each access was blocked
system.cpu.dtb_walker_cache.replacements            0                       # number of replacements
system.cpu.dtb_walker_cache.tags.pwrStateResidencyTicks::UNDEFINED 81947521119500                       # Cumulative time (in ticks) in various power states
system.cpu.dtb_walker_cache.tags.tagsinuse            0                       # Cycle average of tags in use
system.cpu.dtb_walker_cache.tags.total_refs            0                       # Total number of references to valid blocks.
system.cpu.dtb_walker_cache.tags.sampled_refs            0                       # Sample count of references to valid blocks.
system.cpu.dtb_walker_cache.tags.avg_refs          nan                       # Average number of references to valid blocks.
system.cpu.dtb_walker_cache.tags.warmup_cycle            0                       # Cycle when the warmup percentage was hit.
system.cpu.dtb_walker_cache.tags.tag_accesses            0                       # Number of tag accesses
system.cpu.dtb_walker_cache.tags.data_accesses            0                       # Number of data accesses
system.cpu.dcache.pwrStateResidencyTicks::UNDEFINED 81947521119500                       # Cumulative time (in ticks) in various power states
system.cpu.dcache.demand_hits::.cpu.data            1                       # number of demand (read+write) hits
system.cpu.dcache.demand_hits::.switch_cpus.data     18677053                       # number of demand (read+write) hits
system.cpu.dcache.demand_hits::total         18677054                       # number of demand (read+write) hits
system.cpu.dcache.overall_hits::.cpu.data            1                       # number of overall hits
system.cpu.dcache.overall_hits::.switch_cpus.data     18677053                       # number of overall hits
system.cpu.dcache.overall_hits::total        18677054                       # number of overall hits
system.cpu.dcache.demand_misses::.cpu.data            6                       # number of demand (read+write) misses
system.cpu.dcache.demand_misses::.switch_cpus.data       108811                       # number of demand (read+write) misses
system.cpu.dcache.demand_misses::total         108817                       # number of demand (read+write) misses
system.cpu.dcache.overall_misses::.cpu.data            6                       # number of overall misses
system.cpu.dcache.overall_misses::.switch_cpus.data       108811                       # number of overall misses
system.cpu.dcache.overall_misses::total        108817                       # number of overall misses
system.cpu.dcache.demand_miss_latency::.switch_cpus.data   2124033494                       # number of demand (read+write) miss cycles
system.cpu.dcache.demand_miss_latency::total   2124033494                       # number of demand (read+write) miss cycles
system.cpu.dcache.overall_miss_latency::.switch_cpus.data   2124033494                       # number of overall miss cycles
system.cpu.dcache.overall_miss_latency::total   2124033494                       # number of overall miss cycles
system.cpu.dcache.demand_accesses::.cpu.data            7                       # number of demand (read+write) accesses
system.cpu.dcache.demand_accesses::.switch_cpus.data     18785864                       # number of demand (read+write) accesses
system.cpu.dcache.demand_accesses::total     18785871                       # number of demand (read+write) accesses
system.cpu.dcache.overall_accesses::.cpu.data            7                       # number of overall (read+write) accesses
system.cpu.dcache.overall_accesses::.switch_cpus.data     18785864                       # number of overall (read+write) accesses
system.cpu.dcache.overall_accesses::total     18785871                       # number of overall (read+write) accesses
system.cpu.dcache.demand_miss_rate::.cpu.data     0.857143                       # miss rate for demand accesses
system.cpu.dcache.demand_miss_rate::.switch_cpus.data     0.005792                       # miss rate for demand accesses
system.cpu.dcache.demand_miss_rate::total     0.005792                       # miss rate for demand accesses
system.cpu.dcache.overall_miss_rate::.cpu.data     0.857143                       # miss rate for overall accesses
system.cpu.dcache.overall_miss_rate::.switch_cpus.data     0.005792                       # miss rate for overall accesses
system.cpu.dcache.overall_miss_rate::total     0.005792                       # miss rate for overall accesses
system.cpu.dcache.demand_avg_miss_latency::.switch_cpus.data 19520.393104                       # average overall miss latency
system.cpu.dcache.demand_avg_miss_latency::total 19519.316780                       # average overall miss latency
system.cpu.dcache.overall_avg_miss_latency::.switch_cpus.data 19520.393104                       # average overall miss latency
system.cpu.dcache.overall_avg_miss_latency::total 19519.316780                       # average overall miss latency
system.cpu.dcache.blocked_cycles::no_mshrs         7297                       # number of cycles access was blocked
system.cpu.dcache.blocked_cycles::no_targets          118                       # number of cycles access was blocked
system.cpu.dcache.blocked::no_mshrs               676                       # number of cycles access was blocked
system.cpu.dcache.blocked::no_targets               1                       # number of cycles access was blocked
system.cpu.dcache.avg_blocked_cycles::no_mshrs    10.794379                       # average number of cycles each access was blocked
system.cpu.dcache.avg_blocked_cycles::no_targets          118                       # average number of cycles each access was blocked
system.cpu.dcache.writebacks::.writebacks        81562                       # number of writebacks
system.cpu.dcache.writebacks::total             81562                       # number of writebacks
system.cpu.dcache.demand_mshr_hits::.switch_cpus.data         3882                       # number of demand (read+write) MSHR hits
system.cpu.dcache.demand_mshr_hits::total         3882                       # number of demand (read+write) MSHR hits
system.cpu.dcache.overall_mshr_hits::.switch_cpus.data         3882                       # number of overall MSHR hits
system.cpu.dcache.overall_mshr_hits::total         3882                       # number of overall MSHR hits
system.cpu.dcache.demand_mshr_misses::.switch_cpus.data       104929                       # number of demand (read+write) MSHR misses
system.cpu.dcache.demand_mshr_misses::total       104929                       # number of demand (read+write) MSHR misses
system.cpu.dcache.overall_mshr_misses::.switch_cpus.data       104929                       # number of overall MSHR misses
system.cpu.dcache.overall_mshr_misses::total       104929                       # number of overall MSHR misses
system.cpu.dcache.demand_mshr_miss_latency::.switch_cpus.data   1963345994                       # number of demand (read+write) MSHR miss cycles
system.cpu.dcache.demand_mshr_miss_latency::total   1963345994                       # number of demand (read+write) MSHR miss cycles
system.cpu.dcache.overall_mshr_miss_latency::.switch_cpus.data   1963345994                       # number of overall MSHR miss cycles
system.cpu.dcache.overall_mshr_miss_latency::total   1963345994                       # number of overall MSHR miss cycles
system.cpu.dcache.demand_mshr_miss_rate::.switch_cpus.data     0.005586                       # mshr miss rate for demand accesses
system.cpu.dcache.demand_mshr_miss_rate::total     0.005586                       # mshr miss rate for demand accesses
system.cpu.dcache.overall_mshr_miss_rate::.switch_cpus.data     0.005586                       # mshr miss rate for overall accesses
system.cpu.dcache.overall_mshr_miss_rate::total     0.005586                       # mshr miss rate for overall accesses
system.cpu.dcache.demand_avg_mshr_miss_latency::.switch_cpus.data 18711.185602                       # average overall mshr miss latency
system.cpu.dcache.demand_avg_mshr_miss_latency::total 18711.185602                       # average overall mshr miss latency
system.cpu.dcache.overall_avg_mshr_miss_latency::.switch_cpus.data 18711.185602                       # average overall mshr miss latency
system.cpu.dcache.overall_avg_mshr_miss_latency::total 18711.185602                       # average overall mshr miss latency
system.cpu.dcache.replacements                 103911                       # number of replacements
system.cpu.dcache.ReadReq_hits::.switch_cpus.data     13167266                       # number of ReadReq hits
system.cpu.dcache.ReadReq_hits::total        13167266                       # number of ReadReq hits
system.cpu.dcache.ReadReq_misses::.cpu.data            5                       # number of ReadReq misses
system.cpu.dcache.ReadReq_misses::.switch_cpus.data        28507                       # number of ReadReq misses
system.cpu.dcache.ReadReq_misses::total         28512                       # number of ReadReq misses
system.cpu.dcache.ReadReq_miss_latency::.switch_cpus.data    535403500                       # number of ReadReq miss cycles
system.cpu.dcache.ReadReq_miss_latency::total    535403500                       # number of ReadReq miss cycles
system.cpu.dcache.ReadReq_accesses::.cpu.data            5                       # number of ReadReq accesses(hits+misses)
system.cpu.dcache.ReadReq_accesses::.switch_cpus.data     13195773                       # number of ReadReq accesses(hits+misses)
system.cpu.dcache.ReadReq_accesses::total     13195778                       # number of ReadReq accesses(hits+misses)
system.cpu.dcache.ReadReq_miss_rate::.cpu.data            1                       # miss rate for ReadReq accesses
system.cpu.dcache.ReadReq_miss_rate::.switch_cpus.data     0.002160                       # miss rate for ReadReq accesses
system.cpu.dcache.ReadReq_miss_rate::total     0.002161                       # miss rate for ReadReq accesses
system.cpu.dcache.ReadReq_avg_miss_latency::.switch_cpus.data 18781.474726                       # average ReadReq miss latency
system.cpu.dcache.ReadReq_avg_miss_latency::total 18778.181117                       # average ReadReq miss latency
system.cpu.dcache.ReadReq_mshr_hits::.switch_cpus.data         3881                       # number of ReadReq MSHR hits
system.cpu.dcache.ReadReq_mshr_hits::total         3881                       # number of ReadReq MSHR hits
system.cpu.dcache.ReadReq_mshr_misses::.switch_cpus.data        24626                       # number of ReadReq MSHR misses
system.cpu.dcache.ReadReq_mshr_misses::total        24626                       # number of ReadReq MSHR misses
system.cpu.dcache.ReadReq_mshr_miss_latency::.switch_cpus.data    455056500                       # number of ReadReq MSHR miss cycles
system.cpu.dcache.ReadReq_mshr_miss_latency::total    455056500                       # number of ReadReq MSHR miss cycles
system.cpu.dcache.ReadReq_mshr_miss_rate::.switch_cpus.data     0.001866                       # mshr miss rate for ReadReq accesses
system.cpu.dcache.ReadReq_mshr_miss_rate::total     0.001866                       # mshr miss rate for ReadReq accesses
system.cpu.dcache.ReadReq_avg_mshr_miss_latency::.switch_cpus.data 18478.701373                       # average ReadReq mshr miss latency
system.cpu.dcache.ReadReq_avg_mshr_miss_latency::total 18478.701373                       # average ReadReq mshr miss latency
system.cpu.dcache.WriteReq_hits::.cpu.data            1                       # number of WriteReq hits
system.cpu.dcache.WriteReq_hits::.switch_cpus.data      5509787                       # number of WriteReq hits
system.cpu.dcache.WriteReq_hits::total        5509788                       # number of WriteReq hits
system.cpu.dcache.WriteReq_misses::.cpu.data            1                       # number of WriteReq misses
system.cpu.dcache.WriteReq_misses::.switch_cpus.data        80304                       # number of WriteReq misses
system.cpu.dcache.WriteReq_misses::total        80305                       # number of WriteReq misses
system.cpu.dcache.WriteReq_miss_latency::.switch_cpus.data   1588629994                       # number of WriteReq miss cycles
system.cpu.dcache.WriteReq_miss_latency::total   1588629994                       # number of WriteReq miss cycles
system.cpu.dcache.WriteReq_accesses::.cpu.data            2                       # number of WriteReq accesses(hits+misses)
system.cpu.dcache.WriteReq_accesses::.switch_cpus.data      5590091                       # number of WriteReq accesses(hits+misses)
system.cpu.dcache.WriteReq_accesses::total      5590093                       # number of WriteReq accesses(hits+misses)
system.cpu.dcache.WriteReq_miss_rate::.cpu.data     0.500000                       # miss rate for WriteReq accesses
system.cpu.dcache.WriteReq_miss_rate::.switch_cpus.data     0.014365                       # miss rate for WriteReq accesses
system.cpu.dcache.WriteReq_miss_rate::total     0.014366                       # miss rate for WriteReq accesses
system.cpu.dcache.WriteReq_avg_miss_latency::.switch_cpus.data 19782.700662                       # average WriteReq miss latency
system.cpu.dcache.WriteReq_avg_miss_latency::total 19782.454318                       # average WriteReq miss latency
system.cpu.dcache.WriteReq_mshr_hits::.switch_cpus.data            1                       # number of WriteReq MSHR hits
system.cpu.dcache.WriteReq_mshr_hits::total            1                       # number of WriteReq MSHR hits
system.cpu.dcache.WriteReq_mshr_misses::.switch_cpus.data        80303                       # number of WriteReq MSHR misses
system.cpu.dcache.WriteReq_mshr_misses::total        80303                       # number of WriteReq MSHR misses
system.cpu.dcache.WriteReq_mshr_miss_latency::.switch_cpus.data   1508289494                       # number of WriteReq MSHR miss cycles
system.cpu.dcache.WriteReq_mshr_miss_latency::total   1508289494                       # number of WriteReq MSHR miss cycles
system.cpu.dcache.WriteReq_mshr_miss_rate::.switch_cpus.data     0.014365                       # mshr miss rate for WriteReq accesses
system.cpu.dcache.WriteReq_mshr_miss_rate::total     0.014365                       # mshr miss rate for WriteReq accesses
system.cpu.dcache.WriteReq_avg_mshr_miss_latency::.switch_cpus.data 18782.480032                       # average WriteReq mshr miss latency
system.cpu.dcache.WriteReq_avg_mshr_miss_latency::total 18782.480032                       # average WriteReq mshr miss latency
system.cpu.dcache.tags.pwrStateResidencyTicks::UNDEFINED 81947521119500                       # Cumulative time (in ticks) in various power states
system.cpu.dcache.tags.tagsinuse             0.129324                       # Cycle average of tags in use
system.cpu.dcache.tags.total_refs            18781989                       # Total number of references to valid blocks.
system.cpu.dcache.tags.sampled_refs            104935                       # Sample count of references to valid blocks.
system.cpu.dcache.tags.avg_refs            178.986887                       # Average number of references to valid blocks.
system.cpu.dcache.tags.warmup_cycle      81937068258000                       # Cycle when the warmup percentage was hit.
system.cpu.dcache.tags.occ_blocks::.cpu.data     0.000387                       # Average occupied blocks per requestor
system.cpu.dcache.tags.occ_blocks::.switch_cpus.data     0.128937                       # Average occupied blocks per requestor
system.cpu.dcache.tags.occ_percent::.cpu.data     0.000000                       # Average percentage of cache occupancy
system.cpu.dcache.tags.occ_percent::.switch_cpus.data     0.000126                       # Average percentage of cache occupancy
system.cpu.dcache.tags.occ_percent::total     0.000126                       # Average percentage of cache occupancy
system.cpu.dcache.tags.occ_task_id_blocks::1024         1024                       # Occupied blocks per task id
system.cpu.dcache.tags.age_task_id_blocks_1024::0           53                       # Occupied blocks per task id
system.cpu.dcache.tags.age_task_id_blocks_1024::1          568                       # Occupied blocks per task id
system.cpu.dcache.tags.age_task_id_blocks_1024::2          364                       # Occupied blocks per task id
system.cpu.dcache.tags.age_task_id_blocks_1024::3           14                       # Occupied blocks per task id
system.cpu.dcache.tags.age_task_id_blocks_1024::4           25                       # Occupied blocks per task id
system.cpu.dcache.tags.occ_task_id_percent::1024            1                       # Percentage of cache occupancy per task id
system.cpu.dcache.tags.tag_accesses          37676677                       # Number of tag accesses
system.cpu.dcache.tags.data_accesses         37676677                       # Number of data accesses

---------- End Simulation Statistics   ----------
