
---------- Begin Simulation Statistics ----------
final_tick                               270776099347000                       # Number of ticks from beginning of simulation (restored from checkpoints and never reset)
host_inst_rate                                  49330                       # Simulator instruction rate (inst/s)
host_mem_usage                                 804732                       # Number of bytes of host memory used
host_op_rate                                    82380                       # Simulator op (including micro ops) rate (op/s)
host_seconds                                   202.71                       # Real time elapsed on the host
host_tick_rate                               43505868                       # Simulator tick rate (ticks/s)
sim_freq                                 1000000000000                       # Frequency of simulated ticks
sim_insts                                    10000010                       # Number of instructions simulated
sim_ops                                      16699646                       # Number of ops (including micro ops) simulated
sim_seconds                                  0.008819                       # Number of seconds simulated
sim_ticks                                  8819293250                       # Number of ticks simulated
system.cpu.Branches                                 1                       # Number of branches fetched
system.cpu.committedInsts                           7                       # Number of instructions committed
system.cpu.committedOps                            18                       # Number of ops (including micro ops) committed
system.cpu.dtb.rdAccesses                           5                       # TLB accesses on read requests
system.cpu.dtb.rdMisses                             0                       # TLB misses on read requests
system.cpu.dtb.wrAccesses                           1                       # TLB accesses on write requests
system.cpu.dtb.wrMisses                             0                       # TLB misses on write requests
system.cpu.idle_fraction                            0                       # Percentage of idle cycles
system.cpu.itb.rdAccesses                           0                       # TLB accesses on read requests
system.cpu.itb.rdMisses                             0                       # TLB misses on read requests
system.cpu.itb.wrAccesses                           9                       # TLB accesses on write requests
system.cpu.itb.wrMisses                             0                       # TLB misses on write requests
system.cpu.not_idle_fraction                        1                       # Percentage of non-idle cycles
system.cpu.numCycles                               20                       # number of cpu cycles simulated
system.cpu.numWorkItemsCompleted                    0                       # number of work items this cpu completed
system.cpu.numWorkItemsStarted                      0                       # number of work items this cpu started
system.cpu.num_busy_cycles                         20                       # Number of busy cycles
system.cpu.num_cc_register_writes                   2                       # number of times the CC registers were written
system.cpu.num_conditional_control_insts            0                       # number of instructions that are conditional controls
system.cpu.num_fp_alu_accesses                      0                       # Number of float alu accesses
system.cpu.num_fp_insts                             0                       # number of float instructions
system.cpu.num_fp_register_reads                    0                       # number of times the floating registers were read
system.cpu.num_fp_register_writes                   0                       # number of times the floating registers were written
system.cpu.num_func_calls                           1                       # number of times a function call or return occured
system.cpu.num_idle_cycles                          0                       # Number of idle cycles
system.cpu.num_int_alu_accesses                    18                       # Number of integer alu accesses
system.cpu.num_int_insts                           18                       # number of integer instructions
system.cpu.num_int_register_reads                  40                       # number of times the integer registers were read
system.cpu.num_int_register_writes                 16                       # number of times the integer registers were written
system.cpu.num_load_insts                           5                       # Number of load instructions
system.cpu.num_mem_refs                             6                       # number of memory refs
system.cpu.num_store_insts                          1                       # Number of store instructions
system.cpu.num_vec_alu_accesses                     0                       # Number of vector alu accesses
system.cpu.num_vec_insts                            0                       # number of vector instructions
system.cpu.num_vec_register_reads                   0                       # number of times the vector registers were read
system.cpu.num_vec_register_writes                  0                       # number of times the vector registers were written
system.cpu.op_class::No_OpClass                     0      0.00%      0.00% # Class of executed instruction
system.cpu.op_class::IntAlu                        12     66.67%     66.67% # Class of executed instruction
system.cpu.op_class::IntMult                        0      0.00%     66.67% # Class of executed instruction
system.cpu.op_class::IntDiv                         0      0.00%     66.67% # Class of executed instruction
system.cpu.op_class::FloatAdd                       0      0.00%     66.67% # Class of executed instruction
system.cpu.op_class::FloatCmp                       0      0.00%     66.67% # Class of executed instruction
system.cpu.op_class::FloatCvt                       0      0.00%     66.67% # Class of executed instruction
system.cpu.op_class::FloatMult                      0      0.00%     66.67% # Class of executed instruction
system.cpu.op_class::FloatMultAcc                   0      0.00%     66.67% # Class of executed instruction
system.cpu.op_class::FloatDiv                       0      0.00%     66.67% # Class of executed instruction
system.cpu.op_class::FloatMisc                      0      0.00%     66.67% # Class of executed instruction
system.cpu.op_class::FloatSqrt                      0      0.00%     66.67% # Class of executed instruction
system.cpu.op_class::SimdAdd                        0      0.00%     66.67% # Class of executed instruction
system.cpu.op_class::SimdAddAcc                     0      0.00%     66.67% # Class of executed instruction
system.cpu.op_class::SimdAlu                        0      0.00%     66.67% # Class of executed instruction
system.cpu.op_class::SimdCmp                        0      0.00%     66.67% # Class of executed instruction
system.cpu.op_class::SimdCvt                        0      0.00%     66.67% # Class of executed instruction
system.cpu.op_class::SimdMisc                       0      0.00%     66.67% # Class of executed instruction
system.cpu.op_class::SimdMult                       0      0.00%     66.67% # Class of executed instruction
system.cpu.op_class::SimdMultAcc                    0      0.00%     66.67% # Class of executed instruction
system.cpu.op_class::SimdShift                      0      0.00%     66.67% # Class of executed instruction
system.cpu.op_class::SimdShiftAcc                   0      0.00%     66.67% # Class of executed instruction
system.cpu.op_class::SimdDiv                        0      0.00%     66.67% # Class of executed instruction
system.cpu.op_class::SimdSqrt                       0      0.00%     66.67% # Class of executed instruction
system.cpu.op_class::SimdFloatAdd                   0      0.00%     66.67% # Class of executed instruction
system.cpu.op_class::SimdFloatAlu                   0      0.00%     66.67% # Class of executed instruction
system.cpu.op_class::SimdFloatCmp                   0      0.00%     66.67% # Class of executed instruction
system.cpu.op_class::SimdFloatCvt                   0      0.00%     66.67% # Class of executed instruction
system.cpu.op_class::SimdFloatDiv                   0      0.00%     66.67% # Class of executed instruction
system.cpu.op_class::SimdFloatMisc                  0      0.00%     66.67% # Class of executed instruction
system.cpu.op_class::SimdFloatMult                  0      0.00%     66.67% # Class of executed instruction
system.cpu.op_class::SimdFloatMultAcc               0      0.00%     66.67% # Class of executed instruction
system.cpu.op_class::SimdFloatSqrt                  0      0.00%     66.67% # Class of executed instruction
system.cpu.op_class::SimdReduceAdd                  0      0.00%     66.67% # Class of executed instruction
system.cpu.op_class::SimdReduceAlu                  0      0.00%     66.67% # Class of executed instruction
system.cpu.op_class::SimdReduceCmp                  0      0.00%     66.67% # Class of executed instruction
system.cpu.op_class::SimdFloatReduceAdd             0      0.00%     66.67% # Class of executed instruction
system.cpu.op_class::SimdFloatReduceCmp             0      0.00%     66.67% # Class of executed instruction
system.cpu.op_class::SimdAes                        0      0.00%     66.67% # Class of executed instruction
system.cpu.op_class::SimdAesMix                     0      0.00%     66.67% # Class of executed instruction
system.cpu.op_class::SimdSha1Hash                   0      0.00%     66.67% # Class of executed instruction
system.cpu.op_class::SimdSha1Hash2                  0      0.00%     66.67% # Class of executed instruction
system.cpu.op_class::SimdSha256Hash                 0      0.00%     66.67% # Class of executed instruction
system.cpu.op_class::SimdSha256Hash2                0      0.00%     66.67% # Class of executed instruction
system.cpu.op_class::SimdShaSigma2                  0      0.00%     66.67% # Class of executed instruction
system.cpu.op_class::SimdShaSigma3                  0      0.00%     66.67% # Class of executed instruction
system.cpu.op_class::SimdPredAlu                    0      0.00%     66.67% # Class of executed instruction
system.cpu.op_class::MemRead                        5     27.78%     94.44% # Class of executed instruction
system.cpu.op_class::MemWrite                       1      5.56%    100.00% # Class of executed instruction
system.cpu.op_class::FloatMemRead                   0      0.00%    100.00% # Class of executed instruction
system.cpu.op_class::FloatMemWrite                  0      0.00%    100.00% # Class of executed instruction
system.cpu.op_class::IprAccess                      0      0.00%    100.00% # Class of executed instruction
system.cpu.op_class::InstPrefetch                   0      0.00%    100.00% # Class of executed instruction
system.cpu.op_class::total                         18                       # Class of executed instruction
system.cpu.workload.numSyscalls                     0                       # Number of system calls
system.membus.snoop_filter.hit_multi_requests            0                       # Number of requests hitting in the snoop filter with multiple (>1) holders of the requested data.
system.membus.snoop_filter.hit_multi_snoops            0                       # Number of snoops hitting in the snoop filter with multiple (>1) holders of the requested data.
system.membus.snoop_filter.hit_single_requests       155375                       # Number of requests hitting in the snoop filter with a single holder of the requested data.
system.membus.snoop_filter.hit_single_snoops            0                       # Number of snoops hitting in the snoop filter with a single holder of the requested data.
system.membus.snoop_filter.tot_requests        315139                       # Total number of requests made to the snoop filter.
system.membus.snoop_filter.tot_snoops               0                       # Total number of snoops made to the snoop filter.
system.switch_cpus.branchPred.BTBCorrect            0                       # Number of correct BTB predictions (this stat may not work properly.
system.switch_cpus.branchPred.BTBHitPct      0.000000                       # BTB Hit Percentage
system.switch_cpus.branchPred.BTBHits               0                       # Number of BTB hits
system.switch_cpus.branchPred.BTBLookups      1218297                       # Number of BTB lookups
system.switch_cpus.branchPred.RASInCorrect           34                       # Number of incorrect RAS predictions.
system.switch_cpus.branchPred.condIncorrect        60597                       # Number of conditional branches incorrect
system.switch_cpus.branchPred.condPredicted      1259390                       # Number of conditional branches predicted
system.switch_cpus.branchPred.indirectHits       942792                       # Number of indirect target hits.
system.switch_cpus.branchPred.indirectLookups      1218297                       # Number of indirect predictor lookups.
system.switch_cpus.branchPred.indirectMisses       275505                       # Number of indirect misses.
system.switch_cpus.branchPred.lookups         1330546                       # Number of BP lookups
system.switch_cpus.branchPred.usedRAS           35302                       # Number of times the RAS was used to get a target.
system.switch_cpus.branchPredindirectMispredicted        12596                       # Number of mispredicted indirect branches.
system.switch_cpus.cc_regfile_reads           6147896                       # number of cc regfile reads
system.switch_cpus.cc_regfile_writes          4089361                       # number of cc regfile writes
system.switch_cpus.commit.amos                      0                       # Number of atomic instructions committed
system.switch_cpus.commit.branchMispredicts        60664                       # The number of times a branch was mispredicted
system.switch_cpus.commit.branches            1012410                       # Number of branches committed
system.switch_cpus.commit.bw_lim_events       1374511                       # number cycles where commit BW limit reached
system.switch_cpus.commit.commitSquashedInsts      2216145                       # The number of squashed insts skipped by commit
system.switch_cpus.commit.committedInsts     10000003                       # Number of instructions committed
system.switch_cpus.commit.committedOps       16699628                       # Number of ops (including micro ops) committed
system.switch_cpus.commit.committed_per_cycle::samples     17297489                       # Number of insts commited each cycle
system.switch_cpus.commit.committed_per_cycle::mean     0.965437                       # Number of insts commited each cycle
system.switch_cpus.commit.committed_per_cycle::stdev     2.330174                       # Number of insts commited each cycle
system.switch_cpus.commit.committed_per_cycle::underflows            0      0.00%      0.00% # Number of insts commited each cycle
system.switch_cpus.commit.committed_per_cycle::0     13816496     79.88%     79.88% # Number of insts commited each cycle
system.switch_cpus.commit.committed_per_cycle::1       944845      5.46%     85.34% # Number of insts commited each cycle
system.switch_cpus.commit.committed_per_cycle::2       119290      0.69%     86.03% # Number of insts commited each cycle
system.switch_cpus.commit.committed_per_cycle::3       190378      1.10%     87.13% # Number of insts commited each cycle
system.switch_cpus.commit.committed_per_cycle::4       479484      2.77%     89.90% # Number of insts commited each cycle
system.switch_cpus.commit.committed_per_cycle::5       253852      1.47%     91.37% # Number of insts commited each cycle
system.switch_cpus.commit.committed_per_cycle::6        68646      0.40%     91.76% # Number of insts commited each cycle
system.switch_cpus.commit.committed_per_cycle::7        49987      0.29%     92.05% # Number of insts commited each cycle
system.switch_cpus.commit.committed_per_cycle::8      1374511      7.95%    100.00% # Number of insts commited each cycle
system.switch_cpus.commit.committed_per_cycle::overflows            0      0.00%    100.00% # Number of insts commited each cycle
system.switch_cpus.commit.committed_per_cycle::min_value            0                       # Number of insts commited each cycle
system.switch_cpus.commit.committed_per_cycle::max_value            8                       # Number of insts commited each cycle
system.switch_cpus.commit.committed_per_cycle::total     17297489                       # Number of insts commited each cycle
system.switch_cpus.commit.fp_insts            9250008                       # Number of committed floating point instructions.
system.switch_cpus.commit.function_calls        18108                       # Number of function calls committed.
system.switch_cpus.commit.int_insts           9386149                       # Number of committed integer instructions.
system.switch_cpus.commit.loads               2651089                       # Number of loads committed
system.switch_cpus.commit.membars                   0                       # Number of memory barriers committed
system.switch_cpus.commit.op_class_0::No_OpClass        28068      0.17%      0.17% # Class of committed instruction
system.switch_cpus.commit.op_class_0::IntAlu      7077496     42.38%     42.55% # Class of committed instruction
system.switch_cpus.commit.op_class_0::IntMult           15      0.00%     42.55% # Class of committed instruction
system.switch_cpus.commit.op_class_0::IntDiv           77      0.00%     42.55% # Class of committed instruction
system.switch_cpus.commit.op_class_0::FloatAdd       834706      5.00%     47.55% # Class of committed instruction
system.switch_cpus.commit.op_class_0::FloatCmp            0      0.00%     47.55% # Class of committed instruction
system.switch_cpus.commit.op_class_0::FloatCvt            0      0.00%     47.55% # Class of committed instruction
system.switch_cpus.commit.op_class_0::FloatMult            0      0.00%     47.55% # Class of committed instruction
system.switch_cpus.commit.op_class_0::FloatMultAcc            0      0.00%     47.55% # Class of committed instruction
system.switch_cpus.commit.op_class_0::FloatDiv            0      0.00%     47.55% # Class of committed instruction
system.switch_cpus.commit.op_class_0::FloatMisc            0      0.00%     47.55% # Class of committed instruction
system.switch_cpus.commit.op_class_0::FloatSqrt            0      0.00%     47.55% # Class of committed instruction
system.switch_cpus.commit.op_class_0::SimdAdd            0      0.00%     47.55% # Class of committed instruction
system.switch_cpus.commit.op_class_0::SimdAddAcc            0      0.00%     47.55% # Class of committed instruction
system.switch_cpus.commit.op_class_0::SimdAlu      1472440      8.82%     56.37% # Class of committed instruction
system.switch_cpus.commit.op_class_0::SimdCmp            0      0.00%     56.37% # Class of committed instruction
system.switch_cpus.commit.op_class_0::SimdCvt            6      0.00%     56.37% # Class of committed instruction
system.switch_cpus.commit.op_class_0::SimdMisc        40222      0.24%     56.61% # Class of committed instruction
system.switch_cpus.commit.op_class_0::SimdMult            0      0.00%     56.61% # Class of committed instruction
system.switch_cpus.commit.op_class_0::SimdMultAcc            0      0.00%     56.61% # Class of committed instruction
system.switch_cpus.commit.op_class_0::SimdShift            0      0.00%     56.61% # Class of committed instruction
system.switch_cpus.commit.op_class_0::SimdShiftAcc            0      0.00%     56.61% # Class of committed instruction
system.switch_cpus.commit.op_class_0::SimdDiv            0      0.00%     56.61% # Class of committed instruction
system.switch_cpus.commit.op_class_0::SimdSqrt            0      0.00%     56.61% # Class of committed instruction
system.switch_cpus.commit.op_class_0::SimdFloatAdd      1392117      8.34%     64.94% # Class of committed instruction
system.switch_cpus.commit.op_class_0::SimdFloatAlu            0      0.00%     64.94% # Class of committed instruction
system.switch_cpus.commit.op_class_0::SimdFloatCmp        20118      0.12%     65.06% # Class of committed instruction
system.switch_cpus.commit.op_class_0::SimdFloatCvt      1492478      8.94%     74.00% # Class of committed instruction
system.switch_cpus.commit.op_class_0::SimdFloatDiv            0      0.00%     74.00% # Class of committed instruction
system.switch_cpus.commit.op_class_0::SimdFloatMisc            0      0.00%     74.00% # Class of committed instruction
system.switch_cpus.commit.op_class_0::SimdFloatMult      1432276      8.58%     82.58% # Class of committed instruction
system.switch_cpus.commit.op_class_0::SimdFloatMultAcc            0      0.00%     82.58% # Class of committed instruction
system.switch_cpus.commit.op_class_0::SimdFloatSqrt            0      0.00%     82.58% # Class of committed instruction
system.switch_cpus.commit.op_class_0::SimdReduceAdd            0      0.00%     82.58% # Class of committed instruction
system.switch_cpus.commit.op_class_0::SimdReduceAlu            0      0.00%     82.58% # Class of committed instruction
system.switch_cpus.commit.op_class_0::SimdReduceCmp            0      0.00%     82.58% # Class of committed instruction
system.switch_cpus.commit.op_class_0::SimdFloatReduceAdd            0      0.00%     82.58% # Class of committed instruction
system.switch_cpus.commit.op_class_0::SimdFloatReduceCmp            0      0.00%     82.58% # Class of committed instruction
system.switch_cpus.commit.op_class_0::SimdAes            0      0.00%     82.58% # Class of committed instruction
system.switch_cpus.commit.op_class_0::SimdAesMix            0      0.00%     82.58% # Class of committed instruction
system.switch_cpus.commit.op_class_0::SimdSha1Hash            0      0.00%     82.58% # Class of committed instruction
system.switch_cpus.commit.op_class_0::SimdSha1Hash2            0      0.00%     82.58% # Class of committed instruction
system.switch_cpus.commit.op_class_0::SimdSha256Hash            0      0.00%     82.58% # Class of committed instruction
system.switch_cpus.commit.op_class_0::SimdSha256Hash2            0      0.00%     82.58% # Class of committed instruction
system.switch_cpus.commit.op_class_0::SimdShaSigma2            0      0.00%     82.58% # Class of committed instruction
system.switch_cpus.commit.op_class_0::SimdShaSigma3            0      0.00%     82.58% # Class of committed instruction
system.switch_cpus.commit.op_class_0::SimdPredAlu            0      0.00%     82.58% # Class of committed instruction
system.switch_cpus.commit.op_class_0::MemRead       789848      4.73%     87.31% # Class of committed instruction
system.switch_cpus.commit.op_class_0::MemWrite       194915      1.17%     88.47% # Class of committed instruction
system.switch_cpus.commit.op_class_0::FloatMemRead      1861241     11.15%     99.62% # Class of committed instruction
system.switch_cpus.commit.op_class_0::FloatMemWrite        63605      0.38%    100.00% # Class of committed instruction
system.switch_cpus.commit.op_class_0::IprAccess            0      0.00%    100.00% # Class of committed instruction
system.switch_cpus.commit.op_class_0::InstPrefetch            0      0.00%    100.00% # Class of committed instruction
system.switch_cpus.commit.op_class_0::total     16699628                       # Class of committed instruction
system.switch_cpus.commit.refs                2909609                       # Number of memory references committed
system.switch_cpus.commit.swp_count                 0                       # Number of s/w prefetches committed
system.switch_cpus.commit.vec_insts                 0                       # Number of committed Vector instructions.
system.switch_cpus.committedInsts            10000003                       # Number of Instructions Simulated
system.switch_cpus.committedOps              16699628                       # Number of Ops (including micro ops) Simulated
system.switch_cpus.cpi                       1.763856                       # CPI: Cycles Per Instruction
system.switch_cpus.cpi_total                 1.763856                       # CPI: Total CPI of All Threads
system.switch_cpus.decode.BlockedCycles      13766033                       # Number of cycles decode is blocked
system.switch_cpus.decode.DecodedInsts       19656930                       # Number of instructions handled by decode
system.switch_cpus.decode.IdleCycles          1010917                       # Number of cycles decode is idle
system.switch_cpus.decode.RunCycles           1894370                       # Number of cycles decode is running
system.switch_cpus.decode.SquashCycles          60850                       # Number of cycles decode is squashing
system.switch_cpus.decode.UnblockCycles        878262                       # Number of cycles decode is unblocking
system.switch_cpus.dtb.rdAccesses             3020245                       # TLB accesses on read requests
system.switch_cpus.dtb.rdMisses                 10895                       # TLB misses on read requests
system.switch_cpus.dtb.wrAccesses              288100                       # TLB accesses on write requests
system.switch_cpus.dtb.wrMisses                   597                       # TLB misses on write requests
system.switch_cpus.fetch.Branches             1330546                       # Number of branches that fetch encountered
system.switch_cpus.fetch.CacheLines           1494427                       # Number of cache lines fetched
system.switch_cpus.fetch.Cycles              16006785                       # Number of cycles fetch has run and was not squashing or blocked
system.switch_cpus.fetch.IcacheSquashes         12483                       # Number of outstanding Icache misses that were squashed
system.switch_cpus.fetch.Insts               12411530                       # Number of instructions fetch has processed
system.switch_cpus.fetch.MiscStallCycles           61                       # Number of cycles fetch has spent waiting on interrupts, or bad addresses, or out of MSHRs
system.switch_cpus.fetch.PendingTrapStallCycles         2306                       # Number of stall cycles due to pending traps
system.switch_cpus.fetch.SquashCycles          121700                       # Number of cycles fetch has spent squashing
system.switch_cpus.fetch.branchRate          0.075434                       # Number of branch fetches per cycle
system.switch_cpus.fetch.icacheStallCycles      1540431                       # Number of cycles fetch is stalled on an Icache miss
system.switch_cpus.fetch.predictedBranches       978094                       # Number of branches that fetch has predicted taken
system.switch_cpus.fetch.rate                0.703659                       # Number of inst fetches per cycle
system.switch_cpus.fetch.rateDist::samples     17610433                       # Number of instructions fetched each cycle (Total)
system.switch_cpus.fetch.rateDist::mean      1.181308                       # Number of instructions fetched each cycle (Total)
system.switch_cpus.fetch.rateDist::stdev     2.597682                       # Number of instructions fetched each cycle (Total)
system.switch_cpus.fetch.rateDist::underflows            0      0.00%      0.00% # Number of instructions fetched each cycle (Total)
system.switch_cpus.fetch.rateDist::0         14070653     79.90%     79.90% # Number of instructions fetched each cycle (Total)
system.switch_cpus.fetch.rateDist::1           312726      1.78%     81.68% # Number of instructions fetched each cycle (Total)
system.switch_cpus.fetch.rateDist::2           188193      1.07%     82.74% # Number of instructions fetched each cycle (Total)
system.switch_cpus.fetch.rateDist::3           216134      1.23%     83.97% # Number of instructions fetched each cycle (Total)
system.switch_cpus.fetch.rateDist::4           329479      1.87%     85.84% # Number of instructions fetched each cycle (Total)
system.switch_cpus.fetch.rateDist::5           278033      1.58%     87.42% # Number of instructions fetched each cycle (Total)
system.switch_cpus.fetch.rateDist::6           431036      2.45%     89.87% # Number of instructions fetched each cycle (Total)
system.switch_cpus.fetch.rateDist::7           101896      0.58%     90.45% # Number of instructions fetched each cycle (Total)
system.switch_cpus.fetch.rateDist::8          1682283      9.55%    100.00% # Number of instructions fetched each cycle (Total)
system.switch_cpus.fetch.rateDist::overflows            0      0.00%    100.00% # Number of instructions fetched each cycle (Total)
system.switch_cpus.fetch.rateDist::min_value            0                       # Number of instructions fetched each cycle (Total)
system.switch_cpus.fetch.rateDist::max_value            8                       # Number of instructions fetched each cycle (Total)
system.switch_cpus.fetch.rateDist::total     17610433                       # Number of instructions fetched each cycle (Total)
system.switch_cpus.fp_regfile_reads          16019280                       # number of floating regfile reads
system.switch_cpus.fp_regfile_writes          9301592                       # number of floating regfile writes
system.switch_cpus.idleCycles                   28133                       # Total number of cycles that the CPU has spent unscheduled due to idling
system.switch_cpus.iew.branchMispredicts        67921                       # Number of branch mispredicts detected at execute
system.switch_cpus.iew.exec_branches          1089121                       # Number of branches executed
system.switch_cpus.iew.exec_nop                     0                       # number of nop insts executed
system.switch_cpus.iew.exec_rate             1.028740                       # Inst execution rate
system.switch_cpus.iew.exec_refs              3340501                       # number of memory reference insts executed
system.switch_cpus.iew.exec_stores             288091                       # Number of stores executed
system.switch_cpus.iew.exec_swp                     0                       # number of swp insts executed
system.switch_cpus.iew.iewBlockCycles         7521701                       # Number of cycles IEW is blocking
system.switch_cpus.iew.iewDispLoadInsts       3074266                       # Number of dispatched load instructions
system.switch_cpus.iew.iewDispNonSpecInsts            1                       # Number of dispatched non-speculative instructions
system.switch_cpus.iew.iewDispSquashedInsts         4991                       # Number of squashed instructions skipped by dispatch
system.switch_cpus.iew.iewDispStoreInsts       325687                       # Number of dispatched store instructions
system.switch_cpus.iew.iewDispatchedInsts     18913706                       # Number of instructions dispatched to IQ
system.switch_cpus.iew.iewExecLoadInsts       3052410                       # Number of load instructions executed
system.switch_cpus.iew.iewExecSquashedInsts       111321                       # Number of squashed instructions skipped in execute
system.switch_cpus.iew.iewExecutedInsts      18145498                       # Number of executed instructions
system.switch_cpus.iew.iewIQFullEvents          80558                       # Number of times the IQ has become full, causing a stall
system.switch_cpus.iew.iewIdleCycles                0                       # Number of cycles IEW is idle
system.switch_cpus.iew.iewLSQFullEvents        733575                       # Number of times the LSQ has become full, causing a stall
system.switch_cpus.iew.iewSquashCycles          60850                       # Number of cycles IEW is squashing
system.switch_cpus.iew.iewUnblockCycles        863302                       # Number of cycles IEW is unblocking
system.switch_cpus.iew.lsq.thread0.blockedLoads            0                       # Number of blocked loads due to partial load-store forwarding
system.switch_cpus.iew.lsq.thread0.cacheBlocked        21506                       # Number of times an access to memory failed due to the cache being blocked
system.switch_cpus.iew.lsq.thread0.forwLoads        38432                       # Number of loads that had data forwarded from stores
system.switch_cpus.iew.lsq.thread0.ignoredResponses          234                       # Number of memory responses ignored because the instruction is squashed
system.switch_cpus.iew.lsq.thread0.invAddrLoads            0                       # Number of loads ignored due to an invalid address
system.switch_cpus.iew.lsq.thread0.invAddrSwpfs            0                       # Number of software prefetches ignored due to an invalid address
system.switch_cpus.iew.lsq.thread0.memOrderViolation          203                       # Number of memory ordering violations
system.switch_cpus.iew.lsq.thread0.rescheduledLoads           25                       # Number of loads that were rescheduled
system.switch_cpus.iew.lsq.thread0.squashedLoads       423155                       # Number of loads squashed
system.switch_cpus.iew.lsq.thread0.squashedStores        67165                       # Number of stores squashed
system.switch_cpus.iew.memOrderViolationEvents          203                       # Number of memory order violations
system.switch_cpus.iew.predictedNotTakenIncorrect        19954                       # Number of branches that were predicted not taken incorrectly
system.switch_cpus.iew.predictedTakenIncorrect        47967                       # Number of branches that were predicted taken incorrectly
system.switch_cpus.iew.wb_consumers          23667388                       # num instructions consuming a value
system.switch_cpus.iew.wb_count              17914516                       # cumulative count of insts written-back
system.switch_cpus.iew.wb_fanout             0.589520                       # average fanout of values written-back
system.switch_cpus.iew.wb_producers          13952405                       # num instructions producing a value
system.switch_cpus.iew.wb_rate               1.015645                       # insts written-back per cycle
system.switch_cpus.iew.wb_sent               17940203                       # cumulative count of insts sent to commit
system.switch_cpus.int_regfile_reads         15422145                       # number of integer regfile reads
system.switch_cpus.int_regfile_writes         7204788                       # number of integer regfile writes
system.switch_cpus.ipc                       0.566940                       # IPC: Instructions Per Cycle
system.switch_cpus.ipc_total                 0.566940                       # IPC: Total IPC of All Threads
system.switch_cpus.iq.FU_type_0::No_OpClass        35488      0.19%      0.19% # Type of FU issued
system.switch_cpus.iq.FU_type_0::IntAlu       8007955     43.86%     44.06% # Type of FU issued
system.switch_cpus.iq.FU_type_0::IntMult           30      0.00%     44.06% # Type of FU issued
system.switch_cpus.iq.FU_type_0::IntDiv            80      0.00%     44.06% # Type of FU issued
system.switch_cpus.iq.FU_type_0::FloatAdd       898706      4.92%     48.98% # Type of FU issued
system.switch_cpus.iq.FU_type_0::FloatCmp            0      0.00%     48.98% # Type of FU issued
system.switch_cpus.iq.FU_type_0::FloatCvt            0      0.00%     48.98% # Type of FU issued
system.switch_cpus.iq.FU_type_0::FloatMult            0      0.00%     48.98% # Type of FU issued
system.switch_cpus.iq.FU_type_0::FloatMultAcc            0      0.00%     48.98% # Type of FU issued
system.switch_cpus.iq.FU_type_0::FloatDiv            0      0.00%     48.98% # Type of FU issued
system.switch_cpus.iq.FU_type_0::FloatMisc            0      0.00%     48.98% # Type of FU issued
system.switch_cpus.iq.FU_type_0::FloatSqrt            0      0.00%     48.98% # Type of FU issued
system.switch_cpus.iq.FU_type_0::SimdAdd            0      0.00%     48.98% # Type of FU issued
system.switch_cpus.iq.FU_type_0::SimdAddAcc            0      0.00%     48.98% # Type of FU issued
system.switch_cpus.iq.FU_type_0::SimdAlu      1536809      8.42%     57.40% # Type of FU issued
system.switch_cpus.iq.FU_type_0::SimdCmp            0      0.00%     57.40% # Type of FU issued
system.switch_cpus.iq.FU_type_0::SimdCvt           14      0.00%     57.40% # Type of FU issued
system.switch_cpus.iq.FU_type_0::SimdMisc        41312      0.23%     57.62% # Type of FU issued
system.switch_cpus.iq.FU_type_0::SimdMult            0      0.00%     57.62% # Type of FU issued
system.switch_cpus.iq.FU_type_0::SimdMultAcc            0      0.00%     57.62% # Type of FU issued
system.switch_cpus.iq.FU_type_0::SimdShift            0      0.00%     57.62% # Type of FU issued
system.switch_cpus.iq.FU_type_0::SimdShiftAcc            0      0.00%     57.62% # Type of FU issued
system.switch_cpus.iq.FU_type_0::SimdDiv            0      0.00%     57.62% # Type of FU issued
system.switch_cpus.iq.FU_type_0::SimdSqrt            0      0.00%     57.62% # Type of FU issued
system.switch_cpus.iq.FU_type_0::SimdFloatAdd      1394983      7.64%     65.27% # Type of FU issued
system.switch_cpus.iq.FU_type_0::SimdFloatAlu            0      0.00%     65.27% # Type of FU issued
system.switch_cpus.iq.FU_type_0::SimdFloatCmp        20122      0.11%     65.38% # Type of FU issued
system.switch_cpus.iq.FU_type_0::SimdFloatCvt      1498919      8.21%     73.59% # Type of FU issued
system.switch_cpus.iq.FU_type_0::SimdFloatDiv            0      0.00%     73.59% # Type of FU issued
system.switch_cpus.iq.FU_type_0::SimdFloatMisc            0      0.00%     73.59% # Type of FU issued
system.switch_cpus.iq.FU_type_0::SimdFloatMult      1436120      7.87%     81.45% # Type of FU issued
system.switch_cpus.iq.FU_type_0::SimdFloatMultAcc            0      0.00%     81.45% # Type of FU issued
system.switch_cpus.iq.FU_type_0::SimdFloatSqrt            0      0.00%     81.45% # Type of FU issued
system.switch_cpus.iq.FU_type_0::SimdReduceAdd            0      0.00%     81.45% # Type of FU issued
system.switch_cpus.iq.FU_type_0::SimdReduceAlu            0      0.00%     81.45% # Type of FU issued
system.switch_cpus.iq.FU_type_0::SimdReduceCmp            0      0.00%     81.45% # Type of FU issued
system.switch_cpus.iq.FU_type_0::SimdFloatReduceAdd            0      0.00%     81.45% # Type of FU issued
system.switch_cpus.iq.FU_type_0::SimdFloatReduceCmp            0      0.00%     81.45% # Type of FU issued
system.switch_cpus.iq.FU_type_0::SimdAes            0      0.00%     81.45% # Type of FU issued
system.switch_cpus.iq.FU_type_0::SimdAesMix            0      0.00%     81.45% # Type of FU issued
system.switch_cpus.iq.FU_type_0::SimdSha1Hash            0      0.00%     81.45% # Type of FU issued
system.switch_cpus.iq.FU_type_0::SimdSha1Hash2            0      0.00%     81.45% # Type of FU issued
system.switch_cpus.iq.FU_type_0::SimdSha256Hash            0      0.00%     81.45% # Type of FU issued
system.switch_cpus.iq.FU_type_0::SimdSha256Hash2            0      0.00%     81.45% # Type of FU issued
system.switch_cpus.iq.FU_type_0::SimdShaSigma2            0      0.00%     81.45% # Type of FU issued
system.switch_cpus.iq.FU_type_0::SimdShaSigma3            0      0.00%     81.45% # Type of FU issued
system.switch_cpus.iq.FU_type_0::SimdPredAlu            0      0.00%     81.45% # Type of FU issued
system.switch_cpus.iq.FU_type_0::MemRead      1081904      5.93%     87.38% # Type of FU issued
system.switch_cpus.iq.FU_type_0::MemWrite       228784      1.25%     88.63% # Type of FU issued
system.switch_cpus.iq.FU_type_0::FloatMemRead      2011533     11.02%     99.65% # Type of FU issued
system.switch_cpus.iq.FU_type_0::FloatMemWrite        64066      0.35%    100.00% # Type of FU issued
system.switch_cpus.iq.FU_type_0::IprAccess            0      0.00%    100.00% # Type of FU issued
system.switch_cpus.iq.FU_type_0::InstPrefetch            0      0.00%    100.00% # Type of FU issued
system.switch_cpus.iq.FU_type_0::total       18256825                       # Type of FU issued
system.switch_cpus.iq.fp_alu_accesses         9747372                       # Number of floating point alu accesses
system.switch_cpus.iq.fp_inst_queue_reads     19313001                       # Number of floating instruction queue reads
system.switch_cpus.iq.fp_inst_queue_wakeup_accesses      9413988                       # Number of floating instruction queue wakeup accesses
system.switch_cpus.iq.fp_inst_queue_writes     10134808                       # Number of floating instruction queue writes
system.switch_cpus.iq.fu_busy_cnt              317689                       # FU busy when requested
system.switch_cpus.iq.fu_busy_rate           0.017401                       # FU busy rate (busy events/executed inst)
system.switch_cpus.iq.fu_full::No_OpClass            0      0.00%      0.00% # attempts to use FU when none available
system.switch_cpus.iq.fu_full::IntAlu          109529     34.48%     34.48% # attempts to use FU when none available
system.switch_cpus.iq.fu_full::IntMult              0      0.00%     34.48% # attempts to use FU when none available
system.switch_cpus.iq.fu_full::IntDiv               0      0.00%     34.48% # attempts to use FU when none available
system.switch_cpus.iq.fu_full::FloatAdd             0      0.00%     34.48% # attempts to use FU when none available
system.switch_cpus.iq.fu_full::FloatCmp             0      0.00%     34.48% # attempts to use FU when none available
system.switch_cpus.iq.fu_full::FloatCvt             0      0.00%     34.48% # attempts to use FU when none available
system.switch_cpus.iq.fu_full::FloatMult            0      0.00%     34.48% # attempts to use FU when none available
system.switch_cpus.iq.fu_full::FloatMultAcc            0      0.00%     34.48% # attempts to use FU when none available
system.switch_cpus.iq.fu_full::FloatDiv             0      0.00%     34.48% # attempts to use FU when none available
system.switch_cpus.iq.fu_full::FloatMisc            0      0.00%     34.48% # attempts to use FU when none available
system.switch_cpus.iq.fu_full::FloatSqrt            0      0.00%     34.48% # attempts to use FU when none available
system.switch_cpus.iq.fu_full::SimdAdd              0      0.00%     34.48% # attempts to use FU when none available
system.switch_cpus.iq.fu_full::SimdAddAcc            0      0.00%     34.48% # attempts to use FU when none available
system.switch_cpus.iq.fu_full::SimdAlu          52169     16.42%     50.90% # attempts to use FU when none available
system.switch_cpus.iq.fu_full::SimdCmp              0      0.00%     50.90% # attempts to use FU when none available
system.switch_cpus.iq.fu_full::SimdCvt              0      0.00%     50.90% # attempts to use FU when none available
system.switch_cpus.iq.fu_full::SimdMisc             0      0.00%     50.90% # attempts to use FU when none available
system.switch_cpus.iq.fu_full::SimdMult             0      0.00%     50.90% # attempts to use FU when none available
system.switch_cpus.iq.fu_full::SimdMultAcc            0      0.00%     50.90% # attempts to use FU when none available
system.switch_cpus.iq.fu_full::SimdShift            0      0.00%     50.90% # attempts to use FU when none available
system.switch_cpus.iq.fu_full::SimdShiftAcc            0      0.00%     50.90% # attempts to use FU when none available
system.switch_cpus.iq.fu_full::SimdDiv              0      0.00%     50.90% # attempts to use FU when none available
system.switch_cpus.iq.fu_full::SimdSqrt             0      0.00%     50.90% # attempts to use FU when none available
system.switch_cpus.iq.fu_full::SimdFloatAdd        71603     22.54%     73.44% # attempts to use FU when none available
system.switch_cpus.iq.fu_full::SimdFloatAlu            0      0.00%     73.44% # attempts to use FU when none available
system.switch_cpus.iq.fu_full::SimdFloatCmp            0      0.00%     73.44% # attempts to use FU when none available
system.switch_cpus.iq.fu_full::SimdFloatCvt        19423      6.11%     79.55% # attempts to use FU when none available
system.switch_cpus.iq.fu_full::SimdFloatDiv            0      0.00%     79.55% # attempts to use FU when none available
system.switch_cpus.iq.fu_full::SimdFloatMisc            0      0.00%     79.55% # attempts to use FU when none available
system.switch_cpus.iq.fu_full::SimdFloatMult         4173      1.31%     80.86% # attempts to use FU when none available
system.switch_cpus.iq.fu_full::SimdFloatMultAcc            0      0.00%     80.86% # attempts to use FU when none available
system.switch_cpus.iq.fu_full::SimdFloatSqrt            0      0.00%     80.86% # attempts to use FU when none available
system.switch_cpus.iq.fu_full::SimdReduceAdd            0      0.00%     80.86% # attempts to use FU when none available
system.switch_cpus.iq.fu_full::SimdReduceAlu            0      0.00%     80.86% # attempts to use FU when none available
system.switch_cpus.iq.fu_full::SimdReduceCmp            0      0.00%     80.86% # attempts to use FU when none available
system.switch_cpus.iq.fu_full::SimdFloatReduceAdd            0      0.00%     80.86% # attempts to use FU when none available
system.switch_cpus.iq.fu_full::SimdFloatReduceCmp            0      0.00%     80.86% # attempts to use FU when none available
system.switch_cpus.iq.fu_full::SimdAes              0      0.00%     80.86% # attempts to use FU when none available
system.switch_cpus.iq.fu_full::SimdAesMix            0      0.00%     80.86% # attempts to use FU when none available
system.switch_cpus.iq.fu_full::SimdSha1Hash            0      0.00%     80.86% # attempts to use FU when none available
system.switch_cpus.iq.fu_full::SimdSha1Hash2            0      0.00%     80.86% # attempts to use FU when none available
system.switch_cpus.iq.fu_full::SimdSha256Hash            0      0.00%     80.86% # attempts to use FU when none available
system.switch_cpus.iq.fu_full::SimdSha256Hash2            0      0.00%     80.86% # attempts to use FU when none available
system.switch_cpus.iq.fu_full::SimdShaSigma2            0      0.00%     80.86% # attempts to use FU when none available
system.switch_cpus.iq.fu_full::SimdShaSigma3            0      0.00%     80.86% # attempts to use FU when none available
system.switch_cpus.iq.fu_full::SimdPredAlu            0      0.00%     80.86% # attempts to use FU when none available
system.switch_cpus.iq.fu_full::MemRead          20944      6.59%     87.46% # attempts to use FU when none available
system.switch_cpus.iq.fu_full::MemWrite          3556      1.12%     88.58% # attempts to use FU when none available
system.switch_cpus.iq.fu_full::FloatMemRead        36241     11.41%     99.98% # attempts to use FU when none available
system.switch_cpus.iq.fu_full::FloatMemWrite           51      0.02%    100.00% # attempts to use FU when none available
system.switch_cpus.iq.fu_full::IprAccess            0      0.00%    100.00% # attempts to use FU when none available
system.switch_cpus.iq.fu_full::InstPrefetch            0      0.00%    100.00% # attempts to use FU when none available
system.switch_cpus.iq.int_alu_accesses        8791654                       # Number of integer alu accesses
system.switch_cpus.iq.int_inst_queue_reads     35164819                       # Number of integer instruction queue reads
system.switch_cpus.iq.int_inst_queue_wakeup_accesses      8500528                       # Number of integer instruction queue wakeup accesses
system.switch_cpus.iq.int_inst_queue_writes     10993043                       # Number of integer instruction queue writes
system.switch_cpus.iq.iqInstsAdded           18913703                       # Number of instructions added to the IQ (excludes non-spec)
system.switch_cpus.iq.iqInstsIssued          18256825                       # Number of instructions issued
system.switch_cpus.iq.iqNonSpecInstsAdded            3                       # Number of non-speculative instructions added to the IQ
system.switch_cpus.iq.iqSquashedInstsExamined      2213946                       # Number of squashed instructions iterated over during squash; mainly for profiling
system.switch_cpus.iq.iqSquashedInstsIssued        36054                       # Number of squashed instructions issued
system.switch_cpus.iq.iqSquashedNonSpecRemoved            3                       # Number of squashed non-spec instructions that were removed
system.switch_cpus.iq.iqSquashedOperandsExamined      3323640                       # Number of squashed operands that are examined and possibly removed from graph
system.switch_cpus.iq.issued_per_cycle::samples     17610433                       # Number of insts issued each cycle
system.switch_cpus.iq.issued_per_cycle::mean     1.036705                       # Number of insts issued each cycle
system.switch_cpus.iq.issued_per_cycle::stdev     1.896936                       # Number of insts issued each cycle
system.switch_cpus.iq.issued_per_cycle::underflows            0      0.00%      0.00% # Number of insts issued each cycle
system.switch_cpus.iq.issued_per_cycle::0     11997305     68.13%     68.13% # Number of insts issued each cycle
system.switch_cpus.iq.issued_per_cycle::1      1427879      8.11%     76.23% # Number of insts issued each cycle
system.switch_cpus.iq.issued_per_cycle::2      1063152      6.04%     82.27% # Number of insts issued each cycle
system.switch_cpus.iq.issued_per_cycle::3       886324      5.03%     87.30% # Number of insts issued each cycle
system.switch_cpus.iq.issued_per_cycle::4       757378      4.30%     91.61% # Number of insts issued each cycle
system.switch_cpus.iq.issued_per_cycle::5       531778      3.02%     94.62% # Number of insts issued each cycle
system.switch_cpus.iq.issued_per_cycle::6       453663      2.58%     97.20% # Number of insts issued each cycle
system.switch_cpus.iq.issued_per_cycle::7       310342      1.76%     98.96% # Number of insts issued each cycle
system.switch_cpus.iq.issued_per_cycle::8       182612      1.04%    100.00% # Number of insts issued each cycle
system.switch_cpus.iq.issued_per_cycle::overflows            0      0.00%    100.00% # Number of insts issued each cycle
system.switch_cpus.iq.issued_per_cycle::min_value            0                       # Number of insts issued each cycle
system.switch_cpus.iq.issued_per_cycle::max_value            8                       # Number of insts issued each cycle
system.switch_cpus.iq.issued_per_cycle::total     17610433                       # Number of insts issued each cycle
system.switch_cpus.iq.rate                   1.035052                       # Inst issue rate
system.switch_cpus.iq.vec_alu_accesses              0                       # Number of vector alu accesses
system.switch_cpus.iq.vec_inst_queue_reads            0                       # Number of vector instruction queue reads
system.switch_cpus.iq.vec_inst_queue_wakeup_accesses            0                       # Number of vector instruction queue wakeup accesses
system.switch_cpus.iq.vec_inst_queue_writes            0                       # Number of vector instruction queue writes
system.switch_cpus.itb.rdAccesses                   0                       # TLB accesses on read requests
system.switch_cpus.itb.rdMisses                     0                       # TLB misses on read requests
system.switch_cpus.itb.wrAccesses             1494691                       # TLB accesses on write requests
system.switch_cpus.itb.wrMisses                   301                       # TLB misses on write requests
system.switch_cpus.memDep0.conflictingLoads        44374                       # Number of conflicting loads.
system.switch_cpus.memDep0.conflictingStores        17214                       # Number of conflicting stores.
system.switch_cpus.memDep0.insertedLoads      3074266                       # Number of loads inserted to the mem dependence unit.
system.switch_cpus.memDep0.insertedStores       325687                       # Number of stores inserted to the mem dependence unit.
system.switch_cpus.misc_regfile_reads         5608597                       # number of misc regfile reads
system.switch_cpus.misc_regfile_writes              1                       # number of misc regfile writes
system.switch_cpus.numCycles                 17638566                       # number of cpu cycles simulated
system.switch_cpus.numWorkItemsCompleted            0                       # number of work items this cpu completed
system.switch_cpus.numWorkItemsStarted              0                       # number of work items this cpu started
system.switch_cpus.rename.BlockCycles        10957753                       # Number of cycles rename is blocking
system.switch_cpus.rename.CommittedMaps      19126939                       # Number of HB maps that are committed
system.switch_cpus.rename.IQFullEvents        1519500                       # Number of times rename has blocked due to IQ full
system.switch_cpus.rename.IdleCycles          1366829                       # Number of cycles rename is idle
system.switch_cpus.rename.LQFullEvents         406978                       # Number of times rename has blocked due to LQ full
system.switch_cpus.rename.ROBFullEvents        137391                       # Number of times rename has blocked due to ROB full
system.switch_cpus.rename.RenameLookups      47018980                       # Number of register rename lookups that rename has made
system.switch_cpus.rename.RenamedInsts       19367056                       # Number of instructions processed by rename
system.switch_cpus.rename.RenamedOperands     22319033                       # Number of destination operands rename has renamed
system.switch_cpus.rename.RunCycles           2360543                       # Number of cycles rename is running
system.switch_cpus.rename.SQFullEvents         664106                       # Number of times rename has blocked due to SQ full
system.switch_cpus.rename.SquashCycles          60850                       # Number of cycles rename is squashing
system.switch_cpus.rename.UnblockCycles       2864457                       # Number of cycles rename is unblocking
system.switch_cpus.rename.UndoneMaps          3191936                       # Number of HB maps that are undone due to squashing
system.switch_cpus.rename.fp_rename_lookups     16832625                       # Number of floating rename lookups
system.switch_cpus.rename.int_rename_lookups     17053742                       # Number of integer rename lookups
system.switch_cpus.rename.serializeStallCycles            0                       # count of cycles rename stalled for serializing inst
system.switch_cpus.rename.serializingInsts            0                       # count of serializing insts renamed
system.switch_cpus.rename.skidInsts           4567797                       # count of insts added to the skid buffer
system.switch_cpus.rename.tempSerializingInsts            0                       # count of temporary serializing insts renamed
system.switch_cpus.rob.rob_reads             34838751                       # The number of ROB reads
system.switch_cpus.rob.rob_writes            38145225                       # The number of ROB writes
system.switch_cpus.timesIdled                     350                       # Number of times that the entire CPU went into an idle state and unscheduled itself
system.tol2bus.snoop_filter.hit_multi_requests            0                       # Number of requests hitting in the snoop filter with multiple (>1) holders of the requested data.
system.tol2bus.snoop_filter.hit_multi_snoops            0                       # Number of snoops hitting in the snoop filter with multiple (>1) holders of the requested data.
system.tol2bus.snoop_filter.hit_single_requests       183609                       # Number of requests hitting in the snoop filter with a single holder of the requested data.
system.tol2bus.snoop_filter.hit_single_snoops        20200                       # Number of snoops hitting in the snoop filter with a single holder of the requested data.
system.tol2bus.snoop_filter.tot_requests       368531                       # Total number of requests made to the snoop filter.
system.tol2bus.snoop_filter.tot_snoops          20200                       # Total number of snoops made to the snoop filter.
system.membus.pwrStateResidencyTicks::UNDEFINED 270776099347000                       # Cumulative time (in ticks) in various power states
system.membus.trans_dist::ReadResp             148446                       # Transaction distribution
system.membus.trans_dist::WritebackDirty        15750                       # Transaction distribution
system.membus.trans_dist::CleanEvict           139625                       # Transaction distribution
system.membus.trans_dist::ReadExReq             11317                       # Transaction distribution
system.membus.trans_dist::ReadExResp            11317                       # Transaction distribution
system.membus.trans_dist::ReadSharedReq        148447                       # Transaction distribution
system.membus.pkt_count_system.l2.mem_side::system.mem_ctrls.port       474902                       # Packet count per connected master and slave (bytes)
system.membus.pkt_count_system.l2.mem_side::total       474902                       # Packet count per connected master and slave (bytes)
system.membus.pkt_count::total                 474902                       # Packet count per connected master and slave (bytes)
system.membus.pkt_size_system.l2.mem_side::system.mem_ctrls.port     11232832                       # Cumulative packet size per connected master and slave (bytes)
system.membus.pkt_size_system.l2.mem_side::total     11232832                       # Cumulative packet size per connected master and slave (bytes)
system.membus.pkt_size::total                11232832                       # Cumulative packet size per connected master and slave (bytes)
system.membus.snoops                                0                       # Total snoops (count)
system.membus.snoopTraffic                          0                       # Total snoop traffic (bytes)
system.membus.snoop_fanout::samples            159764                       # Request fanout histogram
system.membus.snoop_fanout::mean                    0                       # Request fanout histogram
system.membus.snoop_fanout::stdev                   0                       # Request fanout histogram
system.membus.snoop_fanout::underflows              0      0.00%      0.00% # Request fanout histogram
system.membus.snoop_fanout::0                  159764    100.00%    100.00% # Request fanout histogram
system.membus.snoop_fanout::1                       0      0.00%    100.00% # Request fanout histogram
system.membus.snoop_fanout::overflows               0      0.00%    100.00% # Request fanout histogram
system.membus.snoop_fanout::min_value               0                       # Request fanout histogram
system.membus.snoop_fanout::max_value               0                       # Request fanout histogram
system.membus.snoop_fanout::total              159764                       # Request fanout histogram
system.membus.reqLayer2.occupancy           410579000                       # Layer occupancy (ticks)
system.membus.reqLayer2.utilization               4.7                       # Layer utilization (%)
system.membus.respLayer1.occupancy          854071750                       # Layer occupancy (ticks)
system.membus.respLayer1.utilization              9.7                       # Layer utilization (%)
system.switch_cpus.pwrStateResidencyTicks::OFF   8819293250                       # Cumulative time (in ticks) in various power states
system.switch_cpus.dtb.walker.pwrStateResidencyTicks::UNDEFINED 270776099347000                       # Cumulative time (in ticks) in various power states
system.switch_cpus.itb.walker.pwrStateResidencyTicks::UNDEFINED 270776099347000                       # Cumulative time (in ticks) in various power states
system.tol2bus.pwrStateResidencyTicks::UNDEFINED 270776099347000                       # Cumulative time (in ticks) in various power states
system.tol2bus.trans_dist::ReadResp            172584                       # Transaction distribution
system.tol2bus.trans_dist::WritebackDirty        42027                       # Transaction distribution
system.tol2bus.trans_dist::WritebackClean          163                       # Transaction distribution
system.tol2bus.trans_dist::CleanEvict          299768                       # Transaction distribution
system.tol2bus.trans_dist::ReadExReq            12337                       # Transaction distribution
system.tol2bus.trans_dist::ReadExResp           12337                       # Transaction distribution
system.tol2bus.trans_dist::ReadCleanReq           451                       # Transaction distribution
system.tol2bus.trans_dist::ReadSharedReq       172134                       # Transaction distribution
system.tol2bus.pkt_count_system.cpu.icache.mem_side::system.l2.cpu_side         1065                       # Packet count per connected master and slave (bytes)
system.tol2bus.pkt_count_system.cpu.dcache.mem_side::system.l2.cpu_side       552387                       # Packet count per connected master and slave (bytes)
system.tol2bus.pkt_count::total                553452                       # Packet count per connected master and slave (bytes)
system.tol2bus.pkt_size_system.cpu.icache.mem_side::system.l2.cpu_side        39296                       # Cumulative packet size per connected master and slave (bytes)
system.tol2bus.pkt_size_system.cpu.dcache.mem_side::system.l2.cpu_side     13487808                       # Cumulative packet size per connected master and slave (bytes)
system.tol2bus.pkt_size::total               13527104                       # Cumulative packet size per connected master and slave (bytes)
system.tol2bus.snoops                          158349                       # Total snoops (count)
system.tol2bus.snoopTraffic                   1008000                       # Total snoop traffic (bytes)
system.tol2bus.snoop_fanout::samples           343271                       # Request fanout histogram
system.tol2bus.snoop_fanout::mean            0.058846                       # Request fanout histogram
system.tol2bus.snoop_fanout::stdev           0.235336                       # Request fanout histogram
system.tol2bus.snoop_fanout::underflows             0      0.00%      0.00% # Request fanout histogram
system.tol2bus.snoop_fanout::0                 323071     94.12%     94.12% # Request fanout histogram
system.tol2bus.snoop_fanout::1                  20200      5.88%    100.00% # Request fanout histogram
system.tol2bus.snoop_fanout::2                      0      0.00%    100.00% # Request fanout histogram
system.tol2bus.snoop_fanout::3                      0      0.00%    100.00% # Request fanout histogram
system.tol2bus.snoop_fanout::4                      0      0.00%    100.00% # Request fanout histogram
system.tol2bus.snoop_fanout::overflows              0      0.00%    100.00% # Request fanout histogram
system.tol2bus.snoop_fanout::min_value              0                       # Request fanout histogram
system.tol2bus.snoop_fanout::max_value              1                       # Request fanout histogram
system.tol2bus.snoop_fanout::total             343271                       # Request fanout histogram
system.tol2bus.reqLayer0.occupancy          210703000                       # Layer occupancy (ticks)
system.tol2bus.reqLayer0.utilization              2.4                       # Layer utilization (%)
system.tol2bus.respLayer1.occupancy         276700999                       # Layer occupancy (ticks)
system.tol2bus.respLayer1.utilization             3.1                       # Layer utilization (%)
system.tol2bus.respLayer0.occupancy            673500                       # Layer occupancy (ticks)
system.tol2bus.respLayer0.utilization             0.0                       # Layer utilization (%)
system.voltage_domain.voltage                       1                       # Voltage in Volts
system.clk_domain.clock                          1000                       # Clock period in ticks
system.l2.pwrStateResidencyTicks::UNDEFINED 270776099347000                       # Cumulative time (in ticks) in various power states
system.l2.demand_hits::.switch_cpus.inst           22                       # number of demand (read+write) hits
system.l2.demand_hits::.switch_cpus.data        25136                       # number of demand (read+write) hits
system.l2.demand_hits::total                    25158                       # number of demand (read+write) hits
system.l2.overall_hits::.switch_cpus.inst           22                       # number of overall hits
system.l2.overall_hits::.switch_cpus.data        25136                       # number of overall hits
system.l2.overall_hits::total                   25158                       # number of overall hits
system.l2.demand_misses::.cpu.inst                  2                       # number of demand (read+write) misses
system.l2.demand_misses::.cpu.data                  3                       # number of demand (read+write) misses
system.l2.demand_misses::.switch_cpus.inst          427                       # number of demand (read+write) misses
system.l2.demand_misses::.switch_cpus.data       159332                       # number of demand (read+write) misses
system.l2.demand_misses::total                 159764                       # number of demand (read+write) misses
system.l2.overall_misses::.cpu.inst                 2                       # number of overall misses
system.l2.overall_misses::.cpu.data                 3                       # number of overall misses
system.l2.overall_misses::.switch_cpus.inst          427                       # number of overall misses
system.l2.overall_misses::.switch_cpus.data       159332                       # number of overall misses
system.l2.overall_misses::total                159764                       # number of overall misses
system.l2.demand_miss_latency::.switch_cpus.inst     38746000                       # number of demand (read+write) miss cycles
system.l2.demand_miss_latency::.switch_cpus.data  13140375000                       # number of demand (read+write) miss cycles
system.l2.demand_miss_latency::total      13179121000                       # number of demand (read+write) miss cycles
system.l2.overall_miss_latency::.switch_cpus.inst     38746000                       # number of overall miss cycles
system.l2.overall_miss_latency::.switch_cpus.data  13140375000                       # number of overall miss cycles
system.l2.overall_miss_latency::total     13179121000                       # number of overall miss cycles
system.l2.demand_accesses::.cpu.inst                2                       # number of demand (read+write) accesses
system.l2.demand_accesses::.cpu.data                3                       # number of demand (read+write) accesses
system.l2.demand_accesses::.switch_cpus.inst          449                       # number of demand (read+write) accesses
system.l2.demand_accesses::.switch_cpus.data       184468                       # number of demand (read+write) accesses
system.l2.demand_accesses::total               184922                       # number of demand (read+write) accesses
system.l2.overall_accesses::.cpu.inst               2                       # number of overall (read+write) accesses
system.l2.overall_accesses::.cpu.data               3                       # number of overall (read+write) accesses
system.l2.overall_accesses::.switch_cpus.inst          449                       # number of overall (read+write) accesses
system.l2.overall_accesses::.switch_cpus.data       184468                       # number of overall (read+write) accesses
system.l2.overall_accesses::total              184922                       # number of overall (read+write) accesses
system.l2.demand_miss_rate::.cpu.inst               1                       # miss rate for demand accesses
system.l2.demand_miss_rate::.cpu.data               1                       # miss rate for demand accesses
system.l2.demand_miss_rate::.switch_cpus.inst     0.951002                       # miss rate for demand accesses
system.l2.demand_miss_rate::.switch_cpus.data     0.863738                       # miss rate for demand accesses
system.l2.demand_miss_rate::total            0.863953                       # miss rate for demand accesses
system.l2.overall_miss_rate::.cpu.inst              1                       # miss rate for overall accesses
system.l2.overall_miss_rate::.cpu.data              1                       # miss rate for overall accesses
system.l2.overall_miss_rate::.switch_cpus.inst     0.951002                       # miss rate for overall accesses
system.l2.overall_miss_rate::.switch_cpus.data     0.863738                       # miss rate for overall accesses
system.l2.overall_miss_rate::total           0.863953                       # miss rate for overall accesses
system.l2.demand_avg_miss_latency::.switch_cpus.inst 90740.046838                       # average overall miss latency
system.l2.demand_avg_miss_latency::.switch_cpus.data 82471.662943                       # average overall miss latency
system.l2.demand_avg_miss_latency::total 82491.180742                       # average overall miss latency
system.l2.overall_avg_miss_latency::.switch_cpus.inst 90740.046838                       # average overall miss latency
system.l2.overall_avg_miss_latency::.switch_cpus.data 82471.662943                       # average overall miss latency
system.l2.overall_avg_miss_latency::total 82491.180742                       # average overall miss latency
system.l2.blocked_cycles::no_mshrs                  0                       # number of cycles access was blocked
system.l2.blocked_cycles::no_targets                0                       # number of cycles access was blocked
system.l2.blocked::no_mshrs                         0                       # number of cycles access was blocked
system.l2.blocked::no_targets                       0                       # number of cycles access was blocked
system.l2.avg_blocked_cycles::no_mshrs            nan                       # average number of cycles each access was blocked
system.l2.avg_blocked_cycles::no_targets          nan                       # average number of cycles each access was blocked
system.l2.writebacks::.writebacks               15750                       # number of writebacks
system.l2.writebacks::total                     15750                       # number of writebacks
system.l2.demand_mshr_misses::.switch_cpus.inst          427                       # number of demand (read+write) MSHR misses
system.l2.demand_mshr_misses::.switch_cpus.data       159332                       # number of demand (read+write) MSHR misses
system.l2.demand_mshr_misses::total            159759                       # number of demand (read+write) MSHR misses
system.l2.overall_mshr_misses::.switch_cpus.inst          427                       # number of overall MSHR misses
system.l2.overall_mshr_misses::.switch_cpus.data       159332                       # number of overall MSHR misses
system.l2.overall_mshr_misses::total           159759                       # number of overall MSHR misses
system.l2.demand_mshr_miss_latency::.switch_cpus.inst     34476000                       # number of demand (read+write) MSHR miss cycles
system.l2.demand_mshr_miss_latency::.switch_cpus.data  11547065000                       # number of demand (read+write) MSHR miss cycles
system.l2.demand_mshr_miss_latency::total  11581541000                       # number of demand (read+write) MSHR miss cycles
system.l2.overall_mshr_miss_latency::.switch_cpus.inst     34476000                       # number of overall MSHR miss cycles
system.l2.overall_mshr_miss_latency::.switch_cpus.data  11547065000                       # number of overall MSHR miss cycles
system.l2.overall_mshr_miss_latency::total  11581541000                       # number of overall MSHR miss cycles
system.l2.demand_mshr_miss_rate::.switch_cpus.inst     0.951002                       # mshr miss rate for demand accesses
system.l2.demand_mshr_miss_rate::.switch_cpus.data     0.863738                       # mshr miss rate for demand accesses
system.l2.demand_mshr_miss_rate::total       0.863926                       # mshr miss rate for demand accesses
system.l2.overall_mshr_miss_rate::.switch_cpus.inst     0.951002                       # mshr miss rate for overall accesses
system.l2.overall_mshr_miss_rate::.switch_cpus.data     0.863738                       # mshr miss rate for overall accesses
system.l2.overall_mshr_miss_rate::total      0.863926                       # mshr miss rate for overall accesses
system.l2.demand_avg_mshr_miss_latency::.switch_cpus.inst 80740.046838                       # average overall mshr miss latency
system.l2.demand_avg_mshr_miss_latency::.switch_cpus.data 72471.725705                       # average overall mshr miss latency
system.l2.demand_avg_mshr_miss_latency::total 72493.825074                       # average overall mshr miss latency
system.l2.overall_avg_mshr_miss_latency::.switch_cpus.inst 80740.046838                       # average overall mshr miss latency
system.l2.overall_avg_mshr_miss_latency::.switch_cpus.data 72471.725705                       # average overall mshr miss latency
system.l2.overall_avg_mshr_miss_latency::total 72493.825074                       # average overall mshr miss latency
system.l2.replacements                         158349                       # number of replacements
system.l2.WritebackDirty_hits::.writebacks        26277                       # number of WritebackDirty hits
system.l2.WritebackDirty_hits::total            26277                       # number of WritebackDirty hits
system.l2.WritebackDirty_accesses::.writebacks        26277                       # number of WritebackDirty accesses(hits+misses)
system.l2.WritebackDirty_accesses::total        26277                       # number of WritebackDirty accesses(hits+misses)
system.l2.WritebackClean_hits::.writebacks          163                       # number of WritebackClean hits
system.l2.WritebackClean_hits::total              163                       # number of WritebackClean hits
system.l2.WritebackClean_accesses::.writebacks          163                       # number of WritebackClean accesses(hits+misses)
system.l2.WritebackClean_accesses::total          163                       # number of WritebackClean accesses(hits+misses)
system.l2.CleanEvict_mshr_misses::.writebacks        17226                       # number of CleanEvict MSHR misses
system.l2.CleanEvict_mshr_misses::total         17226                       # number of CleanEvict MSHR misses
system.l2.CleanEvict_mshr_miss_rate::.writebacks          inf                       # mshr miss rate for CleanEvict accesses
system.l2.CleanEvict_mshr_miss_rate::total          inf                       # mshr miss rate for CleanEvict accesses
system.l2.ReadExReq_hits::.switch_cpus.data         1020                       # number of ReadExReq hits
system.l2.ReadExReq_hits::total                  1020                       # number of ReadExReq hits
system.l2.ReadExReq_misses::.cpu.data               1                       # number of ReadExReq misses
system.l2.ReadExReq_misses::.switch_cpus.data        11316                       # number of ReadExReq misses
system.l2.ReadExReq_misses::total               11317                       # number of ReadExReq misses
system.l2.ReadExReq_miss_latency::.switch_cpus.data    906970500                       # number of ReadExReq miss cycles
system.l2.ReadExReq_miss_latency::total     906970500                       # number of ReadExReq miss cycles
system.l2.ReadExReq_accesses::.cpu.data             1                       # number of ReadExReq accesses(hits+misses)
system.l2.ReadExReq_accesses::.switch_cpus.data        12336                       # number of ReadExReq accesses(hits+misses)
system.l2.ReadExReq_accesses::total             12337                       # number of ReadExReq accesses(hits+misses)
system.l2.ReadExReq_miss_rate::.cpu.data            1                       # miss rate for ReadExReq accesses
system.l2.ReadExReq_miss_rate::.switch_cpus.data     0.917315                       # miss rate for ReadExReq accesses
system.l2.ReadExReq_miss_rate::total         0.917322                       # miss rate for ReadExReq accesses
system.l2.ReadExReq_avg_miss_latency::.switch_cpus.data 80149.390244                       # average ReadExReq miss latency
system.l2.ReadExReq_avg_miss_latency::total 80142.308032                       # average ReadExReq miss latency
system.l2.ReadExReq_mshr_misses::.switch_cpus.data        11316                       # number of ReadExReq MSHR misses
system.l2.ReadExReq_mshr_misses::total          11316                       # number of ReadExReq MSHR misses
system.l2.ReadExReq_mshr_miss_latency::.switch_cpus.data    793810500                       # number of ReadExReq MSHR miss cycles
system.l2.ReadExReq_mshr_miss_latency::total    793810500                       # number of ReadExReq MSHR miss cycles
system.l2.ReadExReq_mshr_miss_rate::.switch_cpus.data     0.917315                       # mshr miss rate for ReadExReq accesses
system.l2.ReadExReq_mshr_miss_rate::total     0.917241                       # mshr miss rate for ReadExReq accesses
system.l2.ReadExReq_avg_mshr_miss_latency::.switch_cpus.data 70149.390244                       # average ReadExReq mshr miss latency
system.l2.ReadExReq_avg_mshr_miss_latency::total 70149.390244                       # average ReadExReq mshr miss latency
system.l2.ReadCleanReq_hits::.switch_cpus.inst           22                       # number of ReadCleanReq hits
system.l2.ReadCleanReq_hits::total                 22                       # number of ReadCleanReq hits
system.l2.ReadCleanReq_misses::.cpu.inst            2                       # number of ReadCleanReq misses
system.l2.ReadCleanReq_misses::.switch_cpus.inst          427                       # number of ReadCleanReq misses
system.l2.ReadCleanReq_misses::total              429                       # number of ReadCleanReq misses
system.l2.ReadCleanReq_miss_latency::.switch_cpus.inst     38746000                       # number of ReadCleanReq miss cycles
system.l2.ReadCleanReq_miss_latency::total     38746000                       # number of ReadCleanReq miss cycles
system.l2.ReadCleanReq_accesses::.cpu.inst            2                       # number of ReadCleanReq accesses(hits+misses)
system.l2.ReadCleanReq_accesses::.switch_cpus.inst          449                       # number of ReadCleanReq accesses(hits+misses)
system.l2.ReadCleanReq_accesses::total            451                       # number of ReadCleanReq accesses(hits+misses)
system.l2.ReadCleanReq_miss_rate::.cpu.inst            1                       # miss rate for ReadCleanReq accesses
system.l2.ReadCleanReq_miss_rate::.switch_cpus.inst     0.951002                       # miss rate for ReadCleanReq accesses
[...]
system.cpu.itb.walker.pwrStateResidencyTicks::UNDEFINED 270802821194000                       # Cumulative time (in ticks) in various power states
system.cpu.dtb_walker_cache.pwrStateResidencyTicks::UNDEFINED 270802821194000                       # Cumulative time (in ticks) in various power states
system.cpu.dtb_walker_cache.blocked_cycles::no_mshrs            0                       # number of cycles access was blocked
system.cpu.dtb_walker_cache.blocked_cycles::no_targets            0                       # number of cycles access was blocked
system.cpu.dtb_walker_cache.blocked::no_mshrs            0                       # number of cycles access was blocked
system.cpu.dtb_walker_cache.blocked::no_targets            0                       # number of cycles access was blocked
system.cpu.dtb_walker_cache.avg_blocked_cycles::no_mshrs          nan                       # average number of cycles each access was blocked
system.cpu.dtb_walker_cache.avg_blocked_cycles::no_targets          nan                       # average number of cycles each access was blocked
system.cpu.dtb_walker_cache.replacements            0                       # number of replacements
system.cpu.dtb_walker_cache.tags.pwrStateResidencyTicks::UNDEFINED 270802821194000                       # Cumulative time (in ticks) in various power states
system.cpu.dtb_walker_cache.tags.tagsinuse            0                       # Cycle average of tags in use
system.cpu.dtb_walker_cache.tags.total_refs            0                       # Total number of references to valid blocks.
system.cpu.dtb_walker_cache.tags.sampled_refs            0                       # Sample count of references to valid blocks.
system.cpu.dtb_walker_cache.tags.avg_refs          nan                       # Average number of references to valid blocks.
system.cpu.dtb_walker_cache.tags.warmup_cycle            0                       # Cycle when the warmup percentage was hit.
system.cpu.dtb_walker_cache.tags.tag_accesses            0                       # Number of tag accesses
system.cpu.dtb_walker_cache.tags.data_accesses            0                       # Number of data accesses
system.cpu.dcache.pwrStateResidencyTicks::UNDEFINED 270802821194000                       # Cumulative time (in ticks) in various power states
system.cpu.dcache.demand_hits::.cpu.data            3                       # number of demand (read+write) hits
system.cpu.dcache.demand_hits::.switch_cpus.data     10320304                       # number of demand (read+write) hits
system.cpu.dcache.demand_hits::total         10320307                       # number of demand (read+write) hits
system.cpu.dcache.overall_hits::.cpu.data            3                       # number of overall hits
system.cpu.dcache.overall_hits::.switch_cpus.data     10336447                       # number of overall hits
system.cpu.dcache.overall_hits::total        10336450                       # number of overall hits
system.cpu.dcache.demand_misses::.cpu.data            3                       # number of demand (read+write) misses
system.cpu.dcache.demand_misses::.switch_cpus.data      3008945                       # number of demand (read+write) misses
system.cpu.dcache.demand_misses::total        3008948                       # number of demand (read+write) misses
system.cpu.dcache.overall_misses::.cpu.data            3                       # number of overall misses
system.cpu.dcache.overall_misses::.switch_cpus.data      3009226                       # number of overall misses
system.cpu.dcache.overall_misses::total       3009229                       # number of overall misses
system.cpu.dcache.demand_miss_latency::.switch_cpus.data 193782454366                       # number of demand (read+write) miss cycles
system.cpu.dcache.demand_miss_latency::total 193782454366                       # number of demand (read+write) miss cycles
system.cpu.dcache.overall_miss_latency::.switch_cpus.data 193782454366                       # number of overall miss cycles
system.cpu.dcache.overall_miss_latency::total 193782454366                       # number of overall miss cycles
system.cpu.dcache.demand_accesses::.cpu.data            6                       # number of demand (read+write) accesses
system.cpu.dcache.demand_accesses::.switch_cpus.data     13329249                       # number of demand (read+write) accesses
system.cpu.dcache.demand_accesses::total     13329255                       # number of demand (read+write) accesses
system.cpu.dcache.overall_accesses::.cpu.data            6                       # number of overall (read+write) accesses
system.cpu.dcache.overall_accesses::.switch_cpus.data     13345673                       # number of overall (read+write) accesses
system.cpu.dcache.overall_accesses::total     13345679                       # number of overall (read+write) accesses
system.cpu.dcache.demand_miss_rate::.cpu.data     0.500000                       # miss rate for demand accesses
system.cpu.dcache.demand_miss_rate::.switch_cpus.data     0.225740                       # miss rate for demand accesses
system.cpu.dcache.demand_miss_rate::total     0.225740                       # miss rate for demand accesses
system.cpu.dcache.overall_miss_rate::.cpu.data     0.500000                       # miss rate for overall accesses
system.cpu.dcache.overall_miss_rate::.switch_cpus.data     0.225483                       # miss rate for overall accesses
system.cpu.dcache.overall_miss_rate::total     0.225483                       # miss rate for overall accesses
system.cpu.dcache.demand_avg_miss_latency::.switch_cpus.data 64402.125784                       # average overall miss latency
system.cpu.dcache.demand_avg_miss_latency::total 64402.061573                       # average overall miss latency
system.cpu.dcache.overall_avg_miss_latency::.switch_cpus.data 64396.111946                       # average overall miss latency
system.cpu.dcache.overall_avg_miss_latency::total 64396.047747                       # average overall miss latency
system.cpu.dcache.blocked_cycles::no_mshrs      3839239                       # number of cycles access was blocked
system.cpu.dcache.blocked_cycles::no_targets            0                       # number of cycles access was blocked
system.cpu.dcache.blocked::no_mshrs            101915                       # number of cycles access was blocked
system.cpu.dcache.blocked::no_targets               0                       # number of cycles access was blocked
system.cpu.dcache.avg_blocked_cycles::no_mshrs    37.670991                       # average number of cycles each access was blocked
system.cpu.dcache.avg_blocked_cycles::no_targets          nan                       # average number of cycles each access was blocked
system.cpu.dcache.writebacks::.writebacks       101650                       # number of writebacks
system.cpu.dcache.writebacks::total            101650                       # number of writebacks
system.cpu.dcache.demand_mshr_hits::.switch_cpus.data      2254252                       # number of demand (read+write) MSHR hits
system.cpu.dcache.demand_mshr_hits::total      2254252                       # number of demand (read+write) MSHR hits
system.cpu.dcache.overall_mshr_hits::.switch_cpus.data      2254252                       # number of overall MSHR hits
system.cpu.dcache.overall_mshr_hits::total      2254252                       # number of overall MSHR hits
system.cpu.dcache.demand_mshr_misses::.switch_cpus.data       754693                       # number of demand (read+write) MSHR misses
system.cpu.dcache.demand_mshr_misses::total       754693                       # number of demand (read+write) MSHR misses
system.cpu.dcache.overall_mshr_misses::.switch_cpus.data       754852                       # number of overall MSHR misses
system.cpu.dcache.overall_mshr_misses::total       754852                       # number of overall MSHR misses
system.cpu.dcache.demand_mshr_miss_latency::.switch_cpus.data  55655611868                       # number of demand (read+write) MSHR miss cycles
system.cpu.dcache.demand_mshr_miss_latency::total  55655611868                       # number of demand (read+write) MSHR miss cycles
system.cpu.dcache.overall_mshr_miss_latency::.switch_cpus.data  55662841368                       # number of overall MSHR miss cycles
system.cpu.dcache.overall_mshr_miss_latency::total  55662841368                       # number of overall MSHR miss cycles
system.cpu.dcache.demand_mshr_miss_rate::.switch_cpus.data     0.056619                       # mshr miss rate for demand accesses
system.cpu.dcache.demand_mshr_miss_rate::total     0.056619                       # mshr miss rate for demand accesses
system.cpu.dcache.overall_mshr_miss_rate::.switch_cpus.data     0.056562                       # mshr miss rate for overall accesses
system.cpu.dcache.overall_mshr_miss_rate::total     0.056562                       # mshr miss rate for overall accesses
system.cpu.dcache.demand_avg_mshr_miss_latency::.switch_cpus.data 73746.029005                       # average overall mshr miss latency
system.cpu.dcache.demand_avg_mshr_miss_latency::total 73746.029005                       # average overall mshr miss latency
system.cpu.dcache.overall_avg_mshr_miss_latency::.switch_cpus.data 73740.072714                       # average overall mshr miss latency
system.cpu.dcache.overall_avg_mshr_miss_latency::total 73740.072714                       # average overall mshr miss latency
system.cpu.dcache.replacements                 753830                       # number of replacements
system.cpu.dcache.ReadReq_hits::.cpu.data            3                       # number of ReadReq hits
system.cpu.dcache.ReadReq_hits::.switch_cpus.data      9117272                       # number of ReadReq hits
system.cpu.dcache.ReadReq_hits::total         9117275                       # number of ReadReq hits
system.cpu.dcache.ReadReq_misses::.cpu.data            2                       # number of ReadReq misses
system.cpu.dcache.ReadReq_misses::.switch_cpus.data      2962384                       # number of ReadReq misses
system.cpu.dcache.ReadReq_misses::total       2962386                       # number of ReadReq misses
system.cpu.dcache.ReadReq_miss_latency::.switch_cpus.data 190287163500                       # number of ReadReq miss cycles
system.cpu.dcache.ReadReq_miss_latency::total 190287163500                       # number of ReadReq miss cycles
system.cpu.dcache.ReadReq_accesses::.cpu.data            5                       # number of ReadReq accesses(hits+misses)
system.cpu.dcache.ReadReq_accesses::.switch_cpus.data     12079656                       # number of ReadReq accesses(hits+misses)
system.cpu.dcache.ReadReq_accesses::total     12079661                       # number of ReadReq accesses(hits+misses)
system.cpu.dcache.ReadReq_miss_rate::.cpu.data     0.400000                       # miss rate for ReadReq accesses
system.cpu.dcache.ReadReq_miss_rate::.switch_cpus.data     0.245237                       # miss rate for ReadReq accesses
system.cpu.dcache.ReadReq_miss_rate::total     0.245238                       # miss rate for ReadReq accesses
system.cpu.dcache.ReadReq_avg_miss_latency::.switch_cpus.data 64234.469097                       # average ReadReq miss latency
system.cpu.dcache.ReadReq_avg_miss_latency::total 64234.425730                       # average ReadReq miss latency
system.cpu.dcache.ReadReq_mshr_hits::.switch_cpus.data      2254027                       # number of ReadReq MSHR hits
system.cpu.dcache.ReadReq_mshr_hits::total      2254027                       # number of ReadReq MSHR hits
system.cpu.dcache.ReadReq_mshr_misses::.switch_cpus.data       708357                       # number of ReadReq MSHR misses
system.cpu.dcache.ReadReq_mshr_misses::total       708357                       # number of ReadReq MSHR misses
system.cpu.dcache.ReadReq_mshr_miss_latency::.switch_cpus.data  52216432000                       # number of ReadReq MSHR miss cycles
system.cpu.dcache.ReadReq_mshr_miss_latency::total  52216432000                       # number of ReadReq MSHR miss cycles
system.cpu.dcache.ReadReq_mshr_miss_rate::.switch_cpus.data     0.058640                       # mshr miss rate for ReadReq accesses
system.cpu.dcache.ReadReq_mshr_miss_rate::total     0.058640                       # mshr miss rate for ReadReq accesses
system.cpu.dcache.ReadReq_avg_mshr_miss_latency::.switch_cpus.data 73714.852821                       # average ReadReq mshr miss latency
system.cpu.dcache.ReadReq_avg_mshr_miss_latency::total 73714.852821                       # average ReadReq mshr miss latency
system.cpu.dcache.WriteReq_hits::.switch_cpus.data      1203032                       # number of WriteReq hits
system.cpu.dcache.WriteReq_hits::total        1203032                       # number of WriteReq hits
system.cpu.dcache.WriteReq_misses::.cpu.data            1                       # number of WriteReq misses
system.cpu.dcache.WriteReq_misses::.switch_cpus.data        46561                       # number of WriteReq misses
system.cpu.dcache.WriteReq_misses::total        46562                       # number of WriteReq misses
system.cpu.dcache.WriteReq_miss_latency::.switch_cpus.data   3495290866                       # number of WriteReq miss cycles
system.cpu.dcache.WriteReq_miss_latency::total   3495290866                       # number of WriteReq miss cycles
system.cpu.dcache.WriteReq_accesses::.cpu.data            1                       # number of WriteReq accesses(hits+misses)
system.cpu.dcache.WriteReq_accesses::.switch_cpus.data      1249593                       # number of WriteReq accesses(hits+misses)
system.cpu.dcache.WriteReq_accesses::total      1249594                       # number of WriteReq accesses(hits+misses)
system.cpu.dcache.WriteReq_miss_rate::.cpu.data            1                       # miss rate for WriteReq accesses
system.cpu.dcache.WriteReq_miss_rate::.switch_cpus.data     0.037261                       # miss rate for WriteReq accesses
system.cpu.dcache.WriteReq_miss_rate::total     0.037262                       # miss rate for WriteReq accesses
system.cpu.dcache.WriteReq_avg_miss_latency::.switch_cpus.data 75069.067804                       # average WriteReq miss latency
system.cpu.dcache.WriteReq_avg_miss_latency::total 75067.455565                       # average WriteReq miss latency
system.cpu.dcache.WriteReq_mshr_hits::.switch_cpus.data          225                       # number of WriteReq MSHR hits
system.cpu.dcache.WriteReq_mshr_hits::total          225                       # number of WriteReq MSHR hits
system.cpu.dcache.WriteReq_mshr_misses::.switch_cpus.data        46336                       # number of WriteReq MSHR misses
system.cpu.dcache.WriteReq_mshr_misses::total        46336                       # number of WriteReq MSHR misses
system.cpu.dcache.WriteReq_mshr_miss_latency::.switch_cpus.data   3439179868                       # number of WriteReq MSHR miss cycles
system.cpu.dcache.WriteReq_mshr_miss_latency::total   3439179868                       # number of WriteReq MSHR miss cycles
system.cpu.dcache.WriteReq_mshr_miss_rate::.switch_cpus.data     0.037081                       # mshr miss rate for WriteReq accesses
system.cpu.dcache.WriteReq_mshr_miss_rate::total     0.037081                       # mshr miss rate for WriteReq accesses
system.cpu.dcache.WriteReq_avg_mshr_miss_latency::.switch_cpus.data 74222.631820                       # average WriteReq mshr miss latency
system.cpu.dcache.WriteReq_avg_mshr_miss_latency::total 74222.631820                       # average WriteReq mshr miss latency
system.cpu.dcache.SoftPFReq_hits::.switch_cpus.data        16143                       # number of SoftPFReq hits
system.cpu.dcache.SoftPFReq_hits::total         16143                       # number of SoftPFReq hits
system.cpu.dcache.SoftPFReq_misses::.switch_cpus.data          281                       # number of SoftPFReq misses
system.cpu.dcache.SoftPFReq_misses::total          281                       # number of SoftPFReq misses
system.cpu.dcache.SoftPFReq_accesses::.switch_cpus.data        16424                       # number of SoftPFReq accesses(hits+misses)
system.cpu.dcache.SoftPFReq_accesses::total        16424                       # number of SoftPFReq accesses(hits+misses)
system.cpu.dcache.SoftPFReq_miss_rate::.switch_cpus.data     0.017109                       # miss rate for SoftPFReq accesses
system.cpu.dcache.SoftPFReq_miss_rate::total     0.017109                       # miss rate for SoftPFReq accesses
system.cpu.dcache.SoftPFReq_mshr_misses::.switch_cpus.data          159                       # number of SoftPFReq MSHR misses
system.cpu.dcache.SoftPFReq_mshr_misses::total          159                       # number of SoftPFReq MSHR misses
system.cpu.dcache.SoftPFReq_mshr_miss_latency::.switch_cpus.data      7229500                       # number of SoftPFReq MSHR miss cycles
system.cpu.dcache.SoftPFReq_mshr_miss_latency::total      7229500                       # number of SoftPFReq MSHR miss cycles
system.cpu.dcache.SoftPFReq_mshr_miss_rate::.switch_cpus.data     0.009681                       # mshr miss rate for SoftPFReq accesses
system.cpu.dcache.SoftPFReq_mshr_miss_rate::total     0.009681                       # mshr miss rate for SoftPFReq accesses
system.cpu.dcache.SoftPFReq_avg_mshr_miss_latency::.switch_cpus.data 45468.553459                       # average SoftPFReq mshr miss latency
system.cpu.dcache.SoftPFReq_avg_mshr_miss_latency::total 45468.553459                       # average SoftPFReq mshr miss latency
system.cpu.dcache.tags.pwrStateResidencyTicks::UNDEFINED 270802821194000                       # Cumulative time (in ticks) in various power states
system.cpu.dcache.tags.tagsinuse             0.134272                       # Cycle average of tags in use
system.cpu.dcache.tags.total_refs            11091304                       # Total number of references to valid blocks.
system.cpu.dcache.tags.sampled_refs            754854                       # Sample count of references to valid blocks.
system.cpu.dcache.tags.avg_refs             14.693310                       # Average number of references to valid blocks.
system.cpu.dcache.tags.warmup_cycle      270767280054500                       # Cycle when the warmup percentage was hit.
system.cpu.dcache.tags.occ_blocks::.cpu.data     0.000002                       # Average occupied blocks per requestor
system.cpu.dcache.tags.occ_blocks::.switch_cpus.data     0.134270                       # Average occupied blocks per requestor
system.cpu.dcache.tags.occ_percent::.cpu.data     0.000000                       # Average percentage of cache occupancy
system.cpu.dcache.tags.occ_percent::.switch_cpus.data     0.000131                       # Average percentage of cache occupancy
system.cpu.dcache.tags.occ_percent::total     0.000131                       # Average percentage of cache occupancy
system.cpu.dcache.tags.occ_task_id_blocks::1024         1024                       # Occupied blocks per task id
system.cpu.dcache.tags.age_task_id_blocks_1024::0          208                       # Occupied blocks per task id
system.cpu.dcache.tags.age_task_id_blocks_1024::1          813                       # Occupied blocks per task id
system.cpu.dcache.tags.age_task_id_blocks_1024::3            3                       # Occupied blocks per task id
system.cpu.dcache.tags.occ_task_id_percent::1024            1                       # Percentage of cache occupancy per task id
system.cpu.dcache.tags.tag_accesses          27446212                       # Number of tag accesses
system.cpu.dcache.tags.data_accesses         27446212                       # Number of data accesses

---------- End Simulation Statistics   ----------
