
---------- Begin Simulation Statistics ----------
final_tick                               359103512472500                       # Number of ticks from beginning of simulation (restored from checkpoints and never reset)
host_inst_rate                                  47550                       # Simulator instruction rate (inst/s)
host_mem_usage                                 806620                       # Number of bytes of host memory used
host_op_rate                                    80246                       # Simulator op (including micro ops) rate (op/s)
host_seconds                                   210.31                       # Real time elapsed on the host
host_tick_rate                               42816581                       # Simulator tick rate (ticks/s)
sim_freq                                 1000000000000                       # Frequency of simulated ticks
sim_insts                                    10000009                       # Number of instructions simulated
sim_ops                                      16876344                       # Number of ops (including micro ops) simulated
sim_seconds                                  0.009005                       # Number of seconds simulated
sim_ticks                                  9004632500                       # Number of ticks simulated
system.cpu.Branches                                 1                       # Number of branches fetched
system.cpu.committedInsts                           8                       # Number of instructions committed
system.cpu.committedOps                            16                       # Number of ops (including micro ops) committed
system.cpu.dtb.rdAccesses                           4                       # TLB accesses on read requests
system.cpu.dtb.rdMisses                             0                       # TLB misses on read requests
system.cpu.dtb.wrAccesses                           0                       # TLB accesses on write requests
system.cpu.dtb.wrMisses                             0                       # TLB misses on write requests
system.cpu.idle_fraction                            0                       # Percentage of idle cycles
system.cpu.itb.rdAccesses                           0                       # TLB accesses on read requests
system.cpu.itb.rdMisses                             0                       # TLB misses on read requests
system.cpu.itb.wrAccesses                          12                       # TLB accesses on write requests
system.cpu.itb.wrMisses                             0                       # TLB misses on write requests
system.cpu.not_idle_fraction                        1                       # Percentage of non-idle cycles
system.cpu.numCycles                               20                       # number of cpu cycles simulated
system.cpu.numWorkItemsCompleted                    0                       # number of work items this cpu completed
system.cpu.numWorkItemsStarted                      0                       # number of work items this cpu started
system.cpu.num_busy_cycles                         20                       # Number of busy cycles
system.cpu.num_cc_register_reads                    5                       # number of times the CC registers were read
system.cpu.num_conditional_control_insts            1                       # number of instructions that are conditional controls
system.cpu.num_fp_alu_accesses                     13                       # Number of float alu accesses
system.cpu.num_fp_insts                            13                       # number of float instructions
system.cpu.num_fp_register_reads                   20                       # number of times the floating registers were read
system.cpu.num_fp_register_writes                  13                       # number of times the floating registers were written
system.cpu.num_func_calls                           0                       # number of times a function call or return occured
system.cpu.num_idle_cycles                          0                       # Number of idle cycles
system.cpu.num_int_alu_accesses                     6                       # Number of integer alu accesses
system.cpu.num_int_insts                            6                       # number of integer instructions
system.cpu.num_int_register_reads                  13                       # number of times the integer registers were read
system.cpu.num_int_register_writes                  2                       # number of times the integer registers were written
system.cpu.num_load_insts                           3                       # Number of load instructions
system.cpu.num_mem_refs                             3                       # number of memory refs
system.cpu.num_store_insts                          0                       # Number of store instructions
system.cpu.num_vec_alu_accesses                     0                       # Number of vector alu accesses
system.cpu.num_vec_insts                            0                       # number of vector instructions
system.cpu.num_vec_register_reads                   0                       # number of times the vector registers were read
system.cpu.num_vec_register_writes                  0                       # number of times the vector registers were written
system.cpu.op_class::No_OpClass                     0      0.00%      0.00% # Class of executed instruction
system.cpu.op_class::IntAlu                         5     31.25%     31.25% # Class of executed instruction
system.cpu.op_class::IntMult                        0      0.00%     31.25% # Class of executed instruction
system.cpu.op_class::IntDiv                         0      0.00%     31.25% # Class of executed instruction
system.cpu.op_class::FloatAdd                       2     12.50%     43.75% # Class of executed instruction
system.cpu.op_class::FloatCmp                       0      0.00%     43.75% # Class of executed instruction
system.cpu.op_class::FloatCvt                       0      0.00%     43.75% # Class of executed instruction
system.cpu.op_class::FloatMult                      0      0.00%     43.75% # Class of executed instruction
system.cpu.op_class::FloatMultAcc                   0      0.00%     43.75% # Class of executed instruction
system.cpu.op_class::FloatDiv                       0      0.00%     43.75% # Class of executed instruction
system.cpu.op_class::FloatMisc                      0      0.00%     43.75% # Class of executed instruction
system.cpu.op_class::FloatSqrt                      0      0.00%     43.75% # Class of executed instruction
system.cpu.op_class::SimdAdd                        0      0.00%     43.75% # Class of executed instruction
system.cpu.op_class::SimdAddAcc                     0      0.00%     43.75% # Class of executed instruction
system.cpu.op_class::SimdAlu                        2     12.50%     56.25% # Class of executed instruction
system.cpu.op_class::SimdCmp                        0      0.00%     56.25% # Class of executed instruction
system.cpu.op_class::SimdCvt                        0      0.00%     56.25% # Class of executed instruction
system.cpu.op_class::SimdMisc                       0      0.00%     56.25% # Class of executed instruction
system.cpu.op_class::SimdMult                       0      0.00%     56.25% # Class of executed instruction
system.cpu.op_class::SimdMultAcc                    0      0.00%     56.25% # Class of executed instruction
system.cpu.op_class::SimdShift                      0      0.00%     56.25% # Class of executed instruction
system.cpu.op_class::SimdShiftAcc                   0      0.00%     56.25% # Class of executed instruction
system.cpu.op_class::SimdDiv                        0      0.00%     56.25% # Class of executed instruction
system.cpu.op_class::SimdSqrt                       0      0.00%     56.25% # Class of executed instruction
system.cpu.op_class::SimdFloatAdd                   3     18.75%     75.00% # Class of executed instruction
system.cpu.op_class::SimdFloatAlu                   0      0.00%     75.00% # Class of executed instruction
system.cpu.op_class::SimdFloatCmp                   0      0.00%     75.00% # Class of executed instruction
system.cpu.op_class::SimdFloatCvt                   0      0.00%     75.00% # Class of executed instruction
system.cpu.op_class::SimdFloatDiv                   0      0.00%     75.00% # Class of executed instruction
system.cpu.op_class::SimdFloatMisc                  0      0.00%     75.00% # Class of executed instruction
system.cpu.op_class::SimdFloatMult                  1      6.25%     81.25% # Class of executed instruction
system.cpu.op_class::SimdFloatMultAcc               0      0.00%     81.25% # Class of executed instruction
system.cpu.op_class::SimdFloatSqrt                  0      0.00%     81.25% # Class of executed instruction
system.cpu.op_class::SimdReduceAdd                  0      0.00%     81.25% # Class of executed instruction
system.cpu.op_class::SimdReduceAlu                  0      0.00%     81.25% # Class of executed instruction
system.cpu.op_class::SimdReduceCmp                  0      0.00%     81.25% # Class of executed instruction
system.cpu.op_class::SimdFloatReduceAdd             0      0.00%     81.25% # Class of executed instruction
system.cpu.op_class::SimdFloatReduceCmp             0      0.00%     81.25% # Class of executed instruction
system.cpu.op_class::SimdAes                        0      0.00%     81.25% # Class of executed instruction
system.cpu.op_class::SimdAesMix                     0      0.00%     81.25% # Class of executed instruction
system.cpu.op_class::SimdSha1Hash                   0      0.00%     81.25% # Class of executed instruction
system.cpu.op_class::SimdSha1Hash2                  0      0.00%     81.25% # Class of executed instruction
system.cpu.op_class::SimdSha256Hash                 0      0.00%     81.25% # Class of executed instruction
system.cpu.op_class::SimdSha256Hash2                0      0.00%     81.25% # Class of executed instruction
system.cpu.op_class::SimdShaSigma2                  0      0.00%     81.25% # Class of executed instruction
system.cpu.op_class::SimdShaSigma3                  0      0.00%     81.25% # Class of executed instruction
system.cpu.op_class::SimdPredAlu                    0      0.00%     81.25% # Class of executed instruction
system.cpu.op_class::MemRead                        0      0.00%     81.25% # Class of executed instruction
system.cpu.op_class::MemWrite                       0      0.00%     81.25% # Class of executed instruction
system.cpu.op_class::FloatMemRead                   3     18.75%    100.00% # Class of executed instruction
system.cpu.op_class::FloatMemWrite                  0      0.00%    100.00% # Class of executed instruction
system.cpu.op_class::IprAccess                      0      0.00%    100.00% # Class of executed instruction
system.cpu.op_class::InstPrefetch                   0      0.00%    100.00% # Class of executed instruction
system.cpu.op_class::total                         16                       # Class of executed instruction
system.cpu.workload.numSyscalls                     0                       # Number of system calls
system.membus.snoop_filter.hit_multi_requests            0                       # Number of requests hitting in the snoop filter with multiple (>1) holders of the requested data.
system.membus.snoop_filter.hit_multi_snoops            0                       # Number of snoops hitting in the snoop filter with multiple (>1) holders of the requested data.
system.membus.snoop_filter.hit_single_requests       153712                       # Number of requests hitting in the snoop filter with a single holder of the requested data.
system.membus.snoop_filter.hit_single_snoops            0                       # Number of snoops hitting in the snoop filter with a single holder of the requested data.
system.membus.snoop_filter.tot_requests        316080                       # Total number of requests made to the snoop filter.
system.membus.snoop_filter.tot_snoops               0                       # Total number of snoops made to the snoop filter.
system.switch_cpus.branchPred.BTBCorrect            0                       # Number of correct BTB predictions (this stat may not work properly.
system.switch_cpus.branchPred.BTBHitPct      0.000000                       # BTB Hit Percentage
system.switch_cpus.branchPred.BTBHits               0                       # Number of BTB hits
system.switch_cpus.branchPred.BTBLookups      1368484                       # Number of BTB lookups
system.switch_cpus.branchPred.RASInCorrect           26                       # Number of incorrect RAS predictions.
system.switch_cpus.branchPred.condIncorrect        77495                       # Number of conditional branches incorrect
system.switch_cpus.branchPred.condPredicted      1401813                       # Number of conditional branches predicted
system.switch_cpus.branchPred.indirectHits      1022990                       # Number of indirect target hits.
system.switch_cpus.branchPred.indirectLookups      1368484                       # Number of indirect predictor lookups.
system.switch_cpus.branchPred.indirectMisses       345494                       # Number of indirect misses.
system.switch_cpus.branchPred.lookups         1499963                       # Number of BP lookups
system.switch_cpus.branchPred.usedRAS           48143                       # Number of times the RAS was used to get a target.
system.switch_cpus.branchPredindirectMispredicted        20139                       # Number of mispredicted indirect branches.
system.switch_cpus.cc_regfile_reads           6486670                       # number of cc regfile reads
system.switch_cpus.cc_regfile_writes          4455833                       # number of cc regfile writes
system.switch_cpus.commit.amos                      0                       # Number of atomic instructions committed
system.switch_cpus.commit.branchMispredicts        77557                       # The number of times a branch was mispredicted
system.switch_cpus.commit.branches            1049066                       # Number of branches committed
system.switch_cpus.commit.bw_lim_events       1447947                       # number cycles where commit BW limit reached
system.switch_cpus.commit.commitSquashedInsts      3039426                       # The number of squashed insts skipped by commit
system.switch_cpus.commit.committedInsts     10000001                       # Number of instructions committed
system.switch_cpus.commit.committedOps       16876328                       # Number of ops (including micro ops) committed
system.switch_cpus.commit.committed_per_cycle::samples     17524711                       # Number of insts commited each cycle
system.switch_cpus.commit.committed_per_cycle::mean     0.963002                       # Number of insts commited each cycle
system.switch_cpus.commit.committed_per_cycle::stdev     2.351215                       # Number of insts commited each cycle
system.switch_cpus.commit.committed_per_cycle::underflows            0      0.00%      0.00% # Number of insts commited each cycle
system.switch_cpus.commit.committed_per_cycle::0     14100233     80.46%     80.46% # Number of insts commited each cycle
system.switch_cpus.commit.committed_per_cycle::1       882952      5.04%     85.50% # Number of insts commited each cycle
system.switch_cpus.commit.committed_per_cycle::2       138585      0.79%     86.29% # Number of insts commited each cycle
system.switch_cpus.commit.committed_per_cycle::3       221976      1.27%     87.55% # Number of insts commited each cycle
system.switch_cpus.commit.committed_per_cycle::4       387704      2.21%     89.77% # Number of insts commited each cycle
system.switch_cpus.commit.committed_per_cycle::5       210973      1.20%     90.97% # Number of insts commited each cycle
system.switch_cpus.commit.committed_per_cycle::6        79366      0.45%     91.42% # Number of insts commited each cycle
system.switch_cpus.commit.committed_per_cycle::7        54975      0.31%     91.74% # Number of insts commited each cycle
system.switch_cpus.commit.committed_per_cycle::8      1447947      8.26%    100.00% # Number of insts commited each cycle
system.switch_cpus.commit.committed_per_cycle::overflows            0      0.00%    100.00% # Number of insts commited each cycle
system.switch_cpus.commit.committed_per_cycle::min_value            0                       # Number of insts commited each cycle
system.switch_cpus.commit.committed_per_cycle::max_value            8                       # Number of insts commited each cycle
system.switch_cpus.commit.committed_per_cycle::total     17524711                       # Number of insts commited each cycle
system.switch_cpus.commit.fp_insts            8713194                       # Number of committed floating point instructions.
system.switch_cpus.commit.function_calls        26226                       # Number of function calls committed.
system.switch_cpus.commit.int_insts          10019631                       # Number of committed integer instructions.
system.switch_cpus.commit.loads               2743170                       # Number of loads committed
system.switch_cpus.commit.membars                   0                       # Number of memory barriers committed
system.switch_cpus.commit.op_class_0::No_OpClass        27517      0.16%      0.16% # Class of committed instruction
system.switch_cpus.commit.op_class_0::IntAlu      7410720     43.91%     44.07% # Class of committed instruction
system.switch_cpus.commit.op_class_0::IntMult          119      0.00%     44.08% # Class of committed instruction
system.switch_cpus.commit.op_class_0::IntDiv           56      0.00%     44.08% # Class of committed instruction
system.switch_cpus.commit.op_class_0::FloatAdd       891416      5.28%     49.36% # Class of committed instruction
system.switch_cpus.commit.op_class_0::FloatCmp            0      0.00%     49.36% # Class of committed instruction
system.switch_cpus.commit.op_class_0::FloatCvt            0      0.00%     49.36% # Class of committed instruction
system.switch_cpus.commit.op_class_0::FloatMult            0      0.00%     49.36% # Class of committed instruction
system.switch_cpus.commit.op_class_0::FloatMultAcc            0      0.00%     49.36% # Class of committed instruction
system.switch_cpus.commit.op_class_0::FloatDiv            0      0.00%     49.36% # Class of committed instruction
system.switch_cpus.commit.op_class_0::FloatMisc            0      0.00%     49.36% # Class of committed instruction
system.switch_cpus.commit.op_class_0::FloatSqrt            0      0.00%     49.36% # Class of committed instruction
system.switch_cpus.commit.op_class_0::SimdAdd            0      0.00%     49.36% # Class of committed instruction
system.switch_cpus.commit.op_class_0::SimdAddAcc            0      0.00%     49.36% # Class of committed instruction
system.switch_cpus.commit.op_class_0::SimdAlu      1379320      8.17%     57.53% # Class of committed instruction
system.switch_cpus.commit.op_class_0::SimdCmp            0      0.00%     57.53% # Class of committed instruction
system.switch_cpus.commit.op_class_0::SimdCvt            4      0.00%     57.53% # Class of committed instruction
system.switch_cpus.commit.op_class_0::SimdMisc        34436      0.20%     57.74% # Class of committed instruction
system.switch_cpus.commit.op_class_0::SimdMult            0      0.00%     57.74% # Class of committed instruction
system.switch_cpus.commit.op_class_0::SimdMultAcc            0      0.00%     57.74% # Class of committed instruction
system.switch_cpus.commit.op_class_0::SimdShift            0      0.00%     57.74% # Class of committed instruction
system.switch_cpus.commit.op_class_0::SimdShiftAcc            0      0.00%     57.74% # Class of committed instruction
system.switch_cpus.commit.op_class_0::SimdDiv            0      0.00%     57.74% # Class of committed instruction
system.switch_cpus.commit.op_class_0::SimdSqrt            0      0.00%     57.74% # Class of committed instruction
system.switch_cpus.commit.op_class_0::SimdFloatAdd      1310530      7.77%     65.50% # Class of committed instruction
system.switch_cpus.commit.op_class_0::SimdFloatAlu            0      0.00%     65.50% # Class of committed instruction
system.switch_cpus.commit.op_class_0::SimdFloatCmp        15450      0.09%     65.59% # Class of committed instruction
system.switch_cpus.commit.op_class_0::SimdFloatCvt      1398264      8.29%     73.88% # Class of committed instruction
system.switch_cpus.commit.op_class_0::SimdFloatDiv            0      0.00%     73.88% # Class of committed instruction
system.switch_cpus.commit.op_class_0::SimdFloatMisc            0      0.00%     73.88% # Class of committed instruction
system.switch_cpus.commit.op_class_0::SimdFloatMult      1344926      7.97%     81.85% # Class of committed instruction
system.switch_cpus.commit.op_class_0::SimdFloatMultAcc            0      0.00%     81.85% # Class of committed instruction
system.switch_cpus.commit.op_class_0::SimdFloatSqrt            0      0.00%     81.85% # Class of committed instruction
system.switch_cpus.commit.op_class_0::SimdReduceAdd            0      0.00%     81.85% # Class of committed instruction
system.switch_cpus.commit.op_class_0::SimdReduceAlu            0      0.00%     81.85% # Class of committed instruction
system.switch_cpus.commit.op_class_0::SimdReduceCmp            0      0.00%     81.85% # Class of committed instruction
system.switch_cpus.commit.op_class_0::SimdFloatReduceAdd            0      0.00%     81.85% # Class of committed instruction
system.switch_cpus.commit.op_class_0::SimdFloatReduceCmp            0      0.00%     81.85% # Class of committed instruction
system.switch_cpus.commit.op_class_0::SimdAes            0      0.00%     81.85% # Class of committed instruction
system.switch_cpus.commit.op_class_0::SimdAesMix            0      0.00%     81.85% # Class of committed instruction
system.switch_cpus.commit.op_class_0::SimdSha1Hash            0      0.00%     81.85% # Class of committed instruction
system.switch_cpus.commit.op_class_0::SimdSha1Hash2            0      0.00%     81.85% # Class of committed instruction
system.switch_cpus.commit.op_class_0::SimdSha256Hash            0      0.00%     81.85% # Class of committed instruction
system.switch_cpus.commit.op_class_0::SimdSha256Hash2            0      0.00%     81.85% # Class of committed instruction
system.switch_cpus.commit.op_class_0::SimdShaSigma2            0      0.00%     81.85% # Class of committed instruction
system.switch_cpus.commit.op_class_0::SimdShaSigma3            0      0.00%     81.85% # Class of committed instruction
system.switch_cpus.commit.op_class_0::SimdPredAlu            0      0.00%     81.85% # Class of committed instruction
system.switch_cpus.commit.op_class_0::MemRead       937733      5.56%     87.40% # Class of committed instruction
system.switch_cpus.commit.op_class_0::MemWrite       275299      1.63%     89.03% # Class of committed instruction
system.switch_cpus.commit.op_class_0::FloatMemRead      1805437     10.70%     99.73% # Class of committed instruction
system.switch_cpus.commit.op_class_0::FloatMemWrite        45101      0.27%    100.00% # Class of committed instruction
system.switch_cpus.commit.op_class_0::IprAccess            0      0.00%    100.00% # Class of committed instruction
system.switch_cpus.commit.op_class_0::InstPrefetch            0      0.00%    100.00% # Class of committed instruction
system.switch_cpus.commit.op_class_0::total     16876328                       # Class of committed instruction
system.switch_cpus.commit.refs                3063570                       # Number of memory references committed
system.switch_cpus.commit.swp_count                 0                       # Number of s/w prefetches committed
system.switch_cpus.commit.vec_insts                 0                       # Number of committed Vector instructions.
system.switch_cpus.committedInsts            10000001                       # Number of Instructions Simulated
system.switch_cpus.committedOps              16876328                       # Number of Ops (including micro ops) Simulated
system.switch_cpus.cpi                       1.800924                       # CPI: Cycles Per Instruction
system.switch_cpus.cpi_total                 1.800924                       # CPI: Total CPI of All Threads
system.switch_cpus.decode.BlockedCycles      13698415                       # Number of cycles decode is blocked
system.switch_cpus.decode.DecodedInsts       20842167                       # Number of instructions handled by decode
system.switch_cpus.decode.IdleCycles          1192679                       # Number of cycles decode is idle
system.switch_cpus.decode.RunCycles           2168073                       # Number of cycles decode is running
system.switch_cpus.decode.SquashCycles          77809                       # Number of cycles decode is squashing
system.switch_cpus.decode.UnblockCycles        815599                       # Number of cycles decode is unblocking
system.switch_cpus.dtb.rdAccesses             3211728                       # TLB accesses on read requests
system.switch_cpus.dtb.rdMisses                 15666                       # TLB misses on read requests
system.switch_cpus.dtb.wrAccesses              368588                       # TLB accesses on write requests
system.switch_cpus.dtb.wrMisses                  1253                       # TLB misses on write requests
system.switch_cpus.fetch.Branches             1499963                       # Number of branches that fetch encountered
system.switch_cpus.fetch.CacheLines           1744866                       # Number of cache lines fetched
system.switch_cpus.fetch.Cycles              16063952                       # Number of cycles fetch has run and was not squashing or blocked
system.switch_cpus.fetch.IcacheSquashes         17223                       # Number of outstanding Icache misses that were squashed
system.switch_cpus.fetch.IcacheWaitRetryStallCycles           76                       # Number of stall cycles due to full MSHR
system.switch_cpus.fetch.Insts               13068120                       # Number of instructions fetch has processed
system.switch_cpus.fetch.MiscStallCycles           50                       # Number of cycles fetch has spent waiting on interrupts, or bad addresses, or out of MSHRs
system.switch_cpus.fetch.PendingTrapStallCycles         3422                       # Number of stall cycles due to pending traps
system.switch_cpus.fetch.SquashCycles          155618                       # Number of cycles fetch has spent squashing
system.switch_cpus.fetch.branchRate          0.083288                       # Number of branch fetches per cycle
system.switch_cpus.fetch.icacheStallCycles      1807270                       # Number of cycles fetch is stalled on an Icache miss
system.switch_cpus.fetch.predictedBranches      1071133                       # Number of branches that fetch has predicted taken
system.switch_cpus.fetch.rate                0.725634                       # Number of inst fetches per cycle
system.switch_cpus.fetch.rateDist::samples     17952579                       # Number of instructions fetched each cycle (Total)
system.switch_cpus.fetch.rateDist::mean      1.233313                       # Number of instructions fetched each cycle (Total)
system.switch_cpus.fetch.rateDist::stdev     2.630981                       # Number of instructions fetched each cycle (Total)
system.switch_cpus.fetch.rateDist::underflows            0      0.00%      0.00% # Number of instructions fetched each cycle (Total)
system.switch_cpus.fetch.rateDist::0         14197932     79.09%     79.09% # Number of instructions fetched each cycle (Total)
system.switch_cpus.fetch.rateDist::1           277610      1.55%     80.63% # Number of instructions fetched each cycle (Total)
system.switch_cpus.fetch.rateDist::2           211361      1.18%     81.81% # Number of instructions fetched each cycle (Total)
system.switch_cpus.fetch.rateDist::3           225070      1.25%     83.06% # Number of instructions fetched each cycle (Total)
system.switch_cpus.fetch.rateDist::4           325709      1.81%     84.88% # Number of instructions fetched each cycle (Total)
system.switch_cpus.fetch.rateDist::5           387062      2.16%     87.03% # Number of instructions fetched each cycle (Total)
system.switch_cpus.fetch.rateDist::6           493046      2.75%     89.78% # Number of instructions fetched each cycle (Total)
system.switch_cpus.fetch.rateDist::7           109132      0.61%     90.39% # Number of instructions fetched each cycle (Total)
system.switch_cpus.fetch.rateDist::8          1725657      9.61%    100.00% # Number of instructions fetched each cycle (Total)
system.switch_cpus.fetch.rateDist::overflows            0      0.00%    100.00% # Number of instructions fetched each cycle (Total)
system.switch_cpus.fetch.rateDist::min_value            0                       # Number of instructions fetched each cycle (Total)
system.switch_cpus.fetch.rateDist::max_value            8                       # Number of instructions fetched each cycle (Total)
system.switch_cpus.fetch.rateDist::total     17952579                       # Number of instructions fetched each cycle (Total)
system.switch_cpus.fp_regfile_reads          14832488                       # number of floating regfile reads
system.switch_cpus.fp_regfile_writes          8824414                       # number of floating regfile writes
system.switch_cpus.idleCycles                   56666                       # Total number of cycles that the CPU has spent unscheduled due to idling
system.switch_cpus.iew.branchMispredicts        87513                       # Number of branch mispredicts detected at execute
system.switch_cpus.iew.exec_branches          1165908                       # Number of branches executed
system.switch_cpus.iew.exec_nop                     0                       # number of nop insts executed
system.switch_cpus.iew.exec_rate             1.050643                       # Inst execution rate
system.switch_cpus.iew.exec_refs              3664546                       # number of memory reference insts executed
system.switch_cpus.iew.exec_stores             368520                       # Number of stores executed
system.switch_cpus.iew.exec_swp                     0                       # number of swp insts executed
system.switch_cpus.iew.iewBlockCycles         7519795                       # Number of cycles IEW is blocking
system.switch_cpus.iew.iewDispLoadInsts       3304161                       # Number of dispatched load instructions
system.switch_cpus.iew.iewDispNonSpecInsts           24                       # Number of dispatched non-speculative instructions
system.switch_cpus.iew.iewDispSquashedInsts         7002                       # Number of squashed instructions skipped by dispatch
system.switch_cpus.iew.iewDispStoreInsts       429595                       # Number of dispatched store instructions
system.switch_cpus.iew.iewDispatchedInsts     19912838                       # Number of instructions dispatched to IQ
system.switch_cpus.iew.iewExecLoadInsts       3296026                       # Number of load instructions executed
system.switch_cpus.iew.iewExecSquashedInsts       140941                       # Number of squashed instructions skipped in execute
system.switch_cpus.iew.iewExecutedInsts      18921284                       # Number of executed instructions
system.switch_cpus.iew.iewIQFullEvents          78856                       # Number of times the IQ has become full, causing a stall
system.switch_cpus.iew.iewIdleCycles                0                       # Number of cycles IEW is idle
system.switch_cpus.iew.iewLSQFullEvents        581479                       # Number of times the LSQ has become full, causing a stall
system.switch_cpus.iew.iewSquashCycles          77809                       # Number of cycles IEW is squashing
system.switch_cpus.iew.iewUnblockCycles        707617                       # Number of cycles IEW is unblocking
system.switch_cpus.iew.lsq.thread0.blockedLoads            0                       # Number of blocked loads due to partial load-store forwarding
system.switch_cpus.iew.lsq.thread0.cacheBlocked        28941                       # Number of times an access to memory failed due to the cache being blocked
system.switch_cpus.iew.lsq.thread0.forwLoads        50498                       # Number of loads that had data forwarded from stores
system.switch_cpus.iew.lsq.thread0.ignoredResponses          353                       # Number of memory responses ignored because the instruction is squashed
system.switch_cpus.iew.lsq.thread0.invAddrLoads            0                       # Number of loads ignored due to an invalid address
system.switch_cpus.iew.lsq.thread0.invAddrSwpfs            0                       # Number of software prefetches ignored due to an invalid address
system.switch_cpus.iew.lsq.thread0.memOrderViolation          307                       # Number of memory ordering violations
system.switch_cpus.iew.lsq.thread0.rescheduledLoads          249                       # Number of loads that were rescheduled
system.switch_cpus.iew.lsq.thread0.squashedLoads       560972                       # Number of loads squashed
system.switch_cpus.iew.lsq.thread0.squashedStores       109195                       # Number of stores squashed
system.switch_cpus.iew.memOrderViolationEvents          307                       # Number of memory order violations
system.switch_cpus.iew.predictedNotTakenIncorrect        30045                       # Number of branches that were predicted not taken incorrectly
system.switch_cpus.iew.predictedTakenIncorrect        57468                       # Number of branches that were predicted taken incorrectly
system.switch_cpus.iew.wb_consumers          24061113                       # num instructions consuming a value
system.switch_cpus.iew.wb_count              18608276                       # cumulative count of insts written-back
system.switch_cpus.iew.wb_fanout             0.596708                       # average fanout of values written-back
system.switch_cpus.iew.wb_producers          14357456                       # num instructions producing a value
system.switch_cpus.iew.wb_rate               1.033262                       # insts written-back per cycle
system.switch_cpus.iew.wb_sent               18641859                       # cumulative count of insts sent to commit
system.switch_cpus.int_regfile_reads         17174958                       # number of integer regfile reads
system.switch_cpus.int_regfile_writes         8220696                       # number of integer regfile writes
system.switch_cpus.ipc                       0.555270                       # IPC: Instructions Per Cycle
system.switch_cpus.ipc_total                 0.555270                       # IPC: Total IPC of All Threads
system.switch_cpus.iq.FU_type_0::No_OpClass        39188      0.21%      0.21% # Type of FU issued
system.switch_cpus.iq.FU_type_0::IntAlu       8761009     45.96%     46.17% # Type of FU issued
system.switch_cpus.iq.FU_type_0::IntMult          214      0.00%     46.17% # Type of FU issued
system.switch_cpus.iq.FU_type_0::IntDiv            87      0.00%     46.17% # Type of FU issued
system.switch_cpus.iq.FU_type_0::FloatAdd       966954      5.07%     51.24% # Type of FU issued
system.switch_cpus.iq.FU_type_0::FloatCmp            0      0.00%     51.24% # Type of FU issued
system.switch_cpus.iq.FU_type_0::FloatCvt            0      0.00%     51.24% # Type of FU issued
system.switch_cpus.iq.FU_type_0::FloatMult            0      0.00%     51.24% # Type of FU issued
system.switch_cpus.iq.FU_type_0::FloatMultAcc            0      0.00%     51.24% # Type of FU issued
system.switch_cpus.iq.FU_type_0::FloatDiv            0      0.00%     51.24% # Type of FU issued
system.switch_cpus.iq.FU_type_0::FloatMisc            0      0.00%     51.24% # Type of FU issued
system.switch_cpus.iq.FU_type_0::FloatSqrt            0      0.00%     51.24% # Type of FU issued
system.switch_cpus.iq.FU_type_0::SimdAdd            0      0.00%     51.24% # Type of FU issued
system.switch_cpus.iq.FU_type_0::SimdAddAcc            0      0.00%     51.24% # Type of FU issued
system.switch_cpus.iq.FU_type_0::SimdAlu      1448967      7.60%     58.84% # Type of FU issued
system.switch_cpus.iq.FU_type_0::SimdCmp            0      0.00%     58.84% # Type of FU issued
system.switch_cpus.iq.FU_type_0::SimdCvt            8      0.00%     58.84% # Type of FU issued
system.switch_cpus.iq.FU_type_0::SimdMisc        35274      0.19%     59.03% # Type of FU issued
system.switch_cpus.iq.FU_type_0::SimdMult            0      0.00%     59.03% # Type of FU issued
system.switch_cpus.iq.FU_type_0::SimdMultAcc            0      0.00%     59.03% # Type of FU issued
system.switch_cpus.iq.FU_type_0::SimdShift            0      0.00%     59.03% # Type of FU issued
system.switch_cpus.iq.FU_type_0::SimdShiftAcc            0      0.00%     59.03% # Type of FU issued
system.switch_cpus.iq.FU_type_0::SimdDiv            0      0.00%     59.03% # Type of FU issued
system.switch_cpus.iq.FU_type_0::SimdSqrt            0      0.00%     59.03% # Type of FU issued
system.switch_cpus.iq.FU_type_0::SimdFloatAdd      1317112      6.91%     65.94% # Type of FU issued
system.switch_cpus.iq.FU_type_0::SimdFloatAlu            0      0.00%     65.94% # Type of FU issued
system.switch_cpus.iq.FU_type_0::SimdFloatCmp        15453      0.08%     66.02% # Type of FU issued
system.switch_cpus.iq.FU_type_0::SimdFloatCvt      1408871      7.39%     73.41% # Type of FU issued
system.switch_cpus.iq.FU_type_0::SimdFloatDiv            0      0.00%     73.41% # Type of FU issued
system.switch_cpus.iq.FU_type_0::SimdFloatMisc            0      0.00%     73.41% # Type of FU issued
system.switch_cpus.iq.FU_type_0::SimdFloatMult      1352112      7.09%     80.50% # Type of FU issued
system.switch_cpus.iq.FU_type_0::SimdFloatMultAcc            0      0.00%     80.50% # Type of FU issued
system.switch_cpus.iq.FU_type_0::SimdFloatSqrt            0      0.00%     80.50% # Type of FU issued
system.switch_cpus.iq.FU_type_0::SimdReduceAdd            0      0.00%     80.50% # Type of FU issued
system.switch_cpus.iq.FU_type_0::SimdReduceAlu            0      0.00%     80.50% # Type of FU issued
system.switch_cpus.iq.FU_type_0::SimdReduceCmp            0      0.00%     80.50% # Type of FU issued
system.switch_cpus.iq.FU_type_0::SimdFloatReduceAdd            0      0.00%     80.50% # Type of FU issued
system.switch_cpus.iq.FU_type_0::SimdFloatReduceCmp            0      0.00%     80.50% # Type of FU issued
system.switch_cpus.iq.FU_type_0::SimdAes            0      0.00%     80.50% # Type of FU issued
system.switch_cpus.iq.FU_type_0::SimdAesMix            0      0.00%     80.50% # Type of FU issued
system.switch_cpus.iq.FU_type_0::SimdSha1Hash            0      0.00%     80.50% # Type of FU issued
system.switch_cpus.iq.FU_type_0::SimdSha1Hash2            0      0.00%     80.50% # Type of FU issued
system.switch_cpus.iq.FU_type_0::SimdSha256Hash            0      0.00%     80.50% # Type of FU issued
system.switch_cpus.iq.FU_type_0::SimdSha256Hash2            0      0.00%     80.50% # Type of FU issued
system.switch_cpus.iq.FU_type_0::SimdShaSigma2            0      0.00%     80.50% # Type of FU issued
system.switch_cpus.iq.FU_type_0::SimdShaSigma3            0      0.00%     80.50% # Type of FU issued
system.switch_cpus.iq.FU_type_0::SimdPredAlu            0      0.00%     80.50% # Type of FU issued
system.switch_cpus.iq.FU_type_0::MemRead      1363629      7.15%     87.65% # Type of FU issued
system.switch_cpus.iq.FU_type_0::MemWrite       329988      1.73%     89.39% # Type of FU issued
system.switch_cpus.iq.FU_type_0::FloatMemRead      1977432     10.37%     99.76% # Type of FU issued
system.switch_cpus.iq.FU_type_0::FloatMemWrite        45929      0.24%    100.00% # Type of FU issued
system.switch_cpus.iq.FU_type_0::IprAccess            0      0.00%    100.00% # Type of FU issued
system.switch_cpus.iq.FU_type_0::InstPrefetch            0      0.00%    100.00% # Type of FU issued
system.switch_cpus.iq.FU_type_0::total       19062227                       # Type of FU issued
system.switch_cpus.iq.fp_alu_accesses         9280088                       # Number of floating point alu accesses
system.switch_cpus.iq.fp_inst_queue_reads     18355923                       # Number of floating instruction queue reads
system.switch_cpus.iq.fp_inst_queue_wakeup_accesses      8912860                       # Number of floating instruction queue wakeup accesses
system.switch_cpus.iq.fp_inst_queue_writes      9720083                       # Number of floating instruction queue writes
system.switch_cpus.iq.fu_busy_cnt              355903                       # FU busy when requested
system.switch_cpus.iq.fu_busy_rate           0.018671                       # FU busy rate (busy events/executed inst)
system.switch_cpus.iq.fu_full::No_OpClass            0      0.00%      0.00% # attempts to use FU when none available
system.switch_cpus.iq.fu_full::IntAlu          106542     29.94%     29.94% # attempts to use FU when none available
system.switch_cpus.iq.fu_full::IntMult              0      0.00%     29.94% # attempts to use FU when none available
system.switch_cpus.iq.fu_full::IntDiv               0      0.00%     29.94% # attempts to use FU when none available
system.switch_cpus.iq.fu_full::FloatAdd             0      0.00%     29.94% # attempts to use FU when none available
system.switch_cpus.iq.fu_full::FloatCmp             0      0.00%     29.94% # attempts to use FU when none available
system.switch_cpus.iq.fu_full::FloatCvt             0      0.00%     29.94% # attempts to use FU when none available
system.switch_cpus.iq.fu_full::FloatMult            0      0.00%     29.94% # attempts to use FU when none available
system.switch_cpus.iq.fu_full::FloatMultAcc            0      0.00%     29.94% # attempts to use FU when none available
system.switch_cpus.iq.fu_full::FloatDiv             0      0.00%     29.94% # attempts to use FU when none available
system.switch_cpus.iq.fu_full::FloatMisc            0      0.00%     29.94% # attempts to use FU when none available
system.switch_cpus.iq.fu_full::FloatSqrt            0      0.00%     29.94% # attempts to use FU when none available
system.switch_cpus.iq.fu_full::SimdAdd              0      0.00%     29.94% # attempts to use FU when none available
system.switch_cpus.iq.fu_full::SimdAddAcc            0      0.00%     29.94% # attempts to use FU when none available
system.switch_cpus.iq.fu_full::SimdAlu          61671     17.33%     47.26% # attempts to use FU when none available
system.switch_cpus.iq.fu_full::SimdCmp              0      0.00%     47.26% # attempts to use FU when none available
system.switch_cpus.iq.fu_full::SimdCvt              0      0.00%     47.26% # attempts to use FU when none available
system.switch_cpus.iq.fu_full::SimdMisc             0      0.00%     47.26% # attempts to use FU when none available
system.switch_cpus.iq.fu_full::SimdMult             0      0.00%     47.26% # attempts to use FU when none available
system.switch_cpus.iq.fu_full::SimdMultAcc            0      0.00%     47.26% # attempts to use FU when none available
system.switch_cpus.iq.fu_full::SimdShift            0      0.00%     47.26% # attempts to use FU when none available
system.switch_cpus.iq.fu_full::SimdShiftAcc            0      0.00%     47.26% # attempts to use FU when none available
system.switch_cpus.iq.fu_full::SimdDiv              0      0.00%     47.26% # attempts to use FU when none available
system.switch_cpus.iq.fu_full::SimdSqrt             0      0.00%     47.26% # attempts to use FU when none available
system.switch_cpus.iq.fu_full::SimdFloatAdd        84295     23.68%     70.95% # attempts to use FU when none available
system.switch_cpus.iq.fu_full::SimdFloatAlu            0      0.00%     70.95% # attempts to use FU when none available
system.switch_cpus.iq.fu_full::SimdFloatCmp            0      0.00%     70.95% # attempts to use FU when none available
system.switch_cpus.iq.fu_full::SimdFloatCvt        23395      6.57%     77.52% # attempts to use FU when none available
system.switch_cpus.iq.fu_full::SimdFloatDiv            0      0.00%     77.52% # attempts to use FU when none available
system.switch_cpus.iq.fu_full::SimdFloatMisc            0      0.00%     77.52% # attempts to use FU when none available
system.switch_cpus.iq.fu_full::SimdFloatMult         3252      0.91%     78.44% # attempts to use FU when none available
system.switch_cpus.iq.fu_full::SimdFloatMultAcc            0      0.00%     78.44% # attempts to use FU when none available
system.switch_cpus.iq.fu_full::SimdFloatSqrt            0      0.00%     78.44% # attempts to use FU when none available
system.switch_cpus.iq.fu_full::SimdReduceAdd            0      0.00%     78.44% # attempts to use FU when none available
system.switch_cpus.iq.fu_full::SimdReduceAlu            0      0.00%     78.44% # attempts to use FU when none available
system.switch_cpus.iq.fu_full::SimdReduceCmp            0      0.00%     78.44% # attempts to use FU when none available
system.switch_cpus.iq.fu_full::SimdFloatReduceAdd            0      0.00%     78.44% # attempts to use FU when none available
system.switch_cpus.iq.fu_full::SimdFloatReduceCmp            0      0.00%     78.44% # attempts to use FU when none available
system.switch_cpus.iq.fu_full::SimdAes              0      0.00%     78.44% # attempts to use FU when none available
system.switch_cpus.iq.fu_full::SimdAesMix            0      0.00%     78.44% # attempts to use FU when none available
system.switch_cpus.iq.fu_full::SimdSha1Hash            0      0.00%     78.44% # attempts to use FU when none available
system.switch_cpus.iq.fu_full::SimdSha1Hash2            0      0.00%     78.44% # attempts to use FU when none available
system.switch_cpus.iq.fu_full::SimdSha256Hash            0      0.00%     78.44% # attempts to use FU when none available
system.switch_cpus.iq.fu_full::SimdSha256Hash2            0      0.00%     78.44% # attempts to use FU when none available
system.switch_cpus.iq.fu_full::SimdShaSigma2            0      0.00%     78.44% # attempts to use FU when none available
system.switch_cpus.iq.fu_full::SimdShaSigma3            0      0.00%     78.44% # attempts to use FU when none available
system.switch_cpus.iq.fu_full::SimdPredAlu            0      0.00%     78.44% # attempts to use FU when none available
system.switch_cpus.iq.fu_full::MemRead          34309      9.64%     88.08% # attempts to use FU when none available
system.switch_cpus.iq.fu_full::MemWrite          7102      2.00%     90.07% # attempts to use FU when none available
system.switch_cpus.iq.fu_full::FloatMemRead        35258      9.91%     99.98% # attempts to use FU when none available
system.switch_cpus.iq.fu_full::FloatMemWrite           79      0.02%    100.00% # attempts to use FU when none available
system.switch_cpus.iq.fu_full::IprAccess            0      0.00%    100.00% # attempts to use FU when none available
system.switch_cpus.iq.fu_full::InstPrefetch            0      0.00%    100.00% # attempts to use FU when none available
system.switch_cpus.iq.int_alu_accesses       10098854                       # Number of integer alu accesses
system.switch_cpus.iq.int_inst_queue_reads     38124819                       # Number of integer instruction queue reads
system.switch_cpus.iq.int_inst_queue_wakeup_accesses      9695416                       # Number of integer instruction queue wakeup accesses
system.switch_cpus.iq.int_inst_queue_writes     13229436                       # Number of integer instruction queue writes
system.switch_cpus.iq.iqInstsAdded           19912766                       # Number of instructions added to the IQ (excludes non-spec)
system.switch_cpus.iq.iqInstsIssued          19062227                       # Number of instructions issued
system.switch_cpus.iq.iqNonSpecInstsAdded           72                       # Number of non-speculative instructions added to the IQ
system.switch_cpus.iq.iqSquashedInstsExamined      3036399                       # Number of squashed instructions iterated over during squash; mainly for profiling
system.switch_cpus.iq.iqSquashedInstsIssued        47808                       # Number of squashed instructions issued
system.switch_cpus.iq.iqSquashedNonSpecRemoved           72                       # Number of squashed non-spec instructions that were removed
system.switch_cpus.iq.iqSquashedOperandsExamined      4248702                       # Number of squashed operands that are examined and possibly removed from graph
system.switch_cpus.iq.issued_per_cycle::samples     17952579                       # Number of insts issued each cycle
system.switch_cpus.iq.issued_per_cycle::mean     1.061810                       # Number of insts issued each cycle
system.switch_cpus.iq.issued_per_cycle::stdev     1.928943                       # Number of insts issued each cycle
system.switch_cpus.iq.issued_per_cycle::underflows            0      0.00%      0.00% # Number of insts issued each cycle
system.switch_cpus.iq.issued_per_cycle::0     12164283     67.76%     67.76% # Number of insts issued each cycle
system.switch_cpus.iq.issued_per_cycle::1      1467186      8.17%     75.93% # Number of insts issued each cycle
system.switch_cpus.iq.issued_per_cycle::2      1058528      5.90%     81.83% # Number of insts issued each cycle
system.switch_cpus.iq.issued_per_cycle::3       905141      5.04%     86.87% # Number of insts issued each cycle
system.switch_cpus.iq.issued_per_cycle::4       785261      4.37%     91.24% # Number of insts issued each cycle
system.switch_cpus.iq.issued_per_cycle::5       565908      3.15%     94.39% # Number of insts issued each cycle
system.switch_cpus.iq.issued_per_cycle::6       475473      2.65%     97.04% # Number of insts issued each cycle
system.switch_cpus.iq.issued_per_cycle::7       307252      1.71%     98.75% # Number of insts issued each cycle
system.switch_cpus.iq.issued_per_cycle::8       223547      1.25%    100.00% # Number of insts issued each cycle
system.switch_cpus.iq.issued_per_cycle::overflows            0      0.00%    100.00% # Number of insts issued each cycle
system.switch_cpus.iq.issued_per_cycle::min_value            0                       # Number of insts issued each cycle
system.switch_cpus.iq.issued_per_cycle::max_value            8                       # Number of insts issued each cycle
system.switch_cpus.iq.issued_per_cycle::total     17952579                       # Number of insts issued each cycle
system.switch_cpus.iq.rate                   1.058469                       # Inst issue rate
system.switch_cpus.iq.vec_alu_accesses              0                       # Number of vector alu accesses
system.switch_cpus.iq.vec_inst_queue_reads            0                       # Number of vector instruction queue reads
system.switch_cpus.iq.vec_inst_queue_wakeup_accesses            0                       # Number of vector instruction queue wakeup accesses
system.switch_cpus.iq.vec_inst_queue_writes            0                       # Number of vector instruction queue writes
system.switch_cpus.itb.rdAccesses                   0                       # TLB accesses on read requests
system.switch_cpus.itb.rdMisses                     0                       # TLB misses on read requests
system.switch_cpus.itb.wrAccesses             1745221                       # TLB accesses on write requests
system.switch_cpus.itb.wrMisses                   391                       # TLB misses on write requests
system.switch_cpus.memDep0.conflictingLoads        55533                       # Number of conflicting loads.
system.switch_cpus.memDep0.conflictingStores        20941                       # Number of conflicting stores.
system.switch_cpus.memDep0.insertedLoads      3304161                       # Number of loads inserted to the mem dependence unit.
system.switch_cpus.memDep0.insertedStores       429595                       # Number of stores inserted to the mem dependence unit.
system.switch_cpus.misc_regfile_reads         6129796                       # number of misc regfile reads
system.switch_cpus.misc_regfile_writes              1                       # number of misc regfile writes
system.switch_cpus.numCycles                 18009245                       # number of cpu cycles simulated
system.switch_cpus.numWorkItemsCompleted            0                       # number of work items this cpu completed
system.switch_cpus.numWorkItemsStarted              0                       # number of work items this cpu started
system.switch_cpus.rename.BlockCycles        11139748                       # Number of cycles rename is blocking
system.switch_cpus.rename.CommittedMaps      19414366                       # Number of HB maps that are committed
system.switch_cpus.rename.IQFullEvents        1401693                       # Number of times rename has blocked due to IQ full
system.switch_cpus.rename.IdleCycles          1536132                       # Number of cycles rename is idle
system.switch_cpus.rename.LQFullEvents         491016                       # Number of times rename has blocked due to LQ full
system.switch_cpus.rename.ROBFullEvents        139493                       # Number of times rename has blocked due to ROB full
system.switch_cpus.rename.RenameLookups      49428165                       # Number of register rename lookups that rename has made
system.switch_cpus.rename.RenamedInsts       20477450                       # Number of instructions processed by rename
system.switch_cpus.rename.RenamedOperands     23737692                       # Number of destination operands rename has renamed
system.switch_cpus.rename.RunCycles           2584455                       # Number of cycles rename is running
system.switch_cpus.rename.SQFullEvents         456383                       # Number of times rename has blocked due to SQ full
system.switch_cpus.rename.SquashCycles          77809                       # Number of cycles rename is squashing
system.switch_cpus.rename.UnblockCycles       2614431                       # Number of cycles rename is unblocking
system.switch_cpus.rename.UndoneMaps          4323194                       # Number of HB maps that are undone due to squashing
system.switch_cpus.rename.fp_rename_lookups     15640862                       # Number of floating rename lookups
system.switch_cpus.rename.int_rename_lookups     19382197                       # Number of integer rename lookups
system.switch_cpus.rename.serializeStallCycles            0                       # count of cycles rename stalled for serializing inst
system.switch_cpus.rename.serializingInsts            0                       # count of serializing insts renamed
system.switch_cpus.rename.skidInsts           4275689                       # count of insts added to the skid buffer
system.switch_cpus.rename.tempSerializingInsts            0                       # count of temporary serializing insts renamed
system.switch_cpus.rob.rob_reads             35992518                       # The number of ROB reads
system.switch_cpus.rob.rob_writes            40260342                       # The number of ROB writes
system.switch_cpus.timesIdled                     600                       # Number of times that the entire CPU went into an idle state and unscheduled itself
system.tol2bus.snoop_filter.hit_multi_requests            0                       # Number of requests hitting in the snoop filter with multiple (>1) holders of the requested data.
system.tol2bus.snoop_filter.hit_multi_snoops            0                       # Number of snoops hitting in the snoop filter with multiple (>1) holders of the requested data.
system.tol2bus.snoop_filter.hit_single_requests       205840                       # Number of requests hitting in the snoop filter with a single holder of the requested data.
system.tol2bus.snoop_filter.hit_single_snoops          962                       # Number of snoops hitting in the snoop filter with a single holder of the requested data.
system.tol2bus.snoop_filter.tot_requests       413166                       # Total number of requests made to the snoop filter.
system.tol2bus.snoop_filter.tot_snoops            962                       # Total number of snoops made to the snoop filter.
system.membus.pwrStateResidencyTicks::UNDEFINED 359103512472500                       # Cumulative time (in ticks) in various power states
system.membus.trans_dist::ReadResp             153935                       # Transaction distribution
system.membus.trans_dist::WritebackDirty        14877                       # Transaction distribution
system.membus.trans_dist::CleanEvict           138835                       # Transaction distribution
system.membus.trans_dist::ReadExReq              8432                       # Transaction distribution
system.membus.trans_dist::ReadExResp             8432                       # Transaction distribution
system.membus.trans_dist::ReadSharedReq        153936                       # Transaction distribution
system.membus.pkt_count_system.l2.mem_side::system.mem_ctrls.port       478447                       # Packet count per connected master and slave (bytes)
system.membus.pkt_count_system.l2.mem_side::total       478447                       # Packet count per connected master and slave (bytes)
system.membus.pkt_count::total                 478447                       # Packet count per connected master and slave (bytes)
system.membus.pkt_size_system.l2.mem_side::system.mem_ctrls.port     11343616                       # Cumulative packet size per connected master and slave (bytes)
system.membus.pkt_size_system.l2.mem_side::total     11343616                       # Cumulative packet size per connected master and slave (bytes)
system.membus.pkt_size::total                11343616                       # Cumulative packet size per connected master and slave (bytes)
system.membus.snoops                                0                       # Total snoops (count)
system.membus.snoopTraffic                          0                       # Total snoop traffic (bytes)
system.membus.snoop_fanout::samples            162368                       # Request fanout histogram
system.membus.snoop_fanout::mean                    0                       # Request fanout histogram
system.membus.snoop_fanout::stdev                   0                       # Request fanout histogram
system.membus.snoop_fanout::underflows              0      0.00%      0.00% # Request fanout histogram
system.membus.snoop_fanout::0                  162368    100.00%    100.00% # Request fanout histogram
system.membus.snoop_fanout::1                       0      0.00%    100.00% # Request fanout histogram
system.membus.snoop_fanout::overflows               0      0.00%    100.00% # Request fanout histogram
system.membus.snoop_fanout::min_value               0                       # Request fanout histogram
system.membus.snoop_fanout::max_value               0                       # Request fanout histogram
system.membus.snoop_fanout::total              162368                       # Request fanout histogram
system.membus.reqLayer2.occupancy           408658500                       # Layer occupancy (ticks)
system.membus.reqLayer2.utilization               4.5                       # Layer utilization (%)
system.membus.respLayer1.occupancy          868558750                       # Layer occupancy (ticks)
system.membus.respLayer1.utilization              9.6                       # Layer utilization (%)
system.switch_cpus.pwrStateResidencyTicks::OFF   9004632500                       # Cumulative time (in ticks) in various power states
system.switch_cpus.dtb.walker.pwrStateResidencyTicks::UNDEFINED 359103512472500                       # Cumulative time (in ticks) in various power states
system.switch_cpus.itb.walker.pwrStateResidencyTicks::UNDEFINED 359103512472500                       # Cumulative time (in ticks) in various power states
system.tol2bus.pwrStateResidencyTicks::UNDEFINED 359103512472500                       # Cumulative time (in ticks) in various power states
system.tol2bus.trans_dist::ReadResp            197255                       # Transaction distribution
system.tol2bus.trans_dist::WritebackDirty        51278                       # Transaction distribution
system.tol2bus.trans_dist::WritebackClean          464                       # Transaction distribution
system.tol2bus.trans_dist::CleanEvict          308722                       # Transaction distribution
system.tol2bus.trans_dist::ReadExReq            10069                       # Transaction distribution
system.tol2bus.trans_dist::ReadExResp           10069                       # Transaction distribution
system.tol2bus.trans_dist::ReadCleanReq           924                       # Transaction distribution
system.tol2bus.trans_dist::ReadSharedReq       196333                       # Transaction distribution
system.tol2bus.pkt_count_system.cpu.icache.mem_side::system.l2.cpu_side         2312                       # Packet count per connected master and slave (bytes)
system.tol2bus.pkt_count_system.cpu.dcache.mem_side::system.l2.cpu_side       618178                       # Packet count per connected master and slave (bytes)
system.tol2bus.pkt_count::total                620490                       # Packet count per connected master and slave (bytes)
system.tol2bus.pkt_size_system.cpu.icache.mem_side::system.l2.cpu_side        88832                       # Cumulative packet size per connected master and slave (bytes)
system.tol2bus.pkt_size_system.cpu.dcache.mem_side::system.l2.cpu_side     15539264                       # Cumulative packet size per connected master and slave (bytes)
system.tol2bus.pkt_size::total               15628096                       # Cumulative packet size per connected master and slave (bytes)
system.tol2bus.snoops                          154624                       # Total snoops (count)
system.tol2bus.snoopTraffic                    952128                       # Total snoop traffic (bytes)
system.tol2bus.snoop_fanout::samples           361950                       # Request fanout histogram
system.tol2bus.snoop_fanout::mean            0.002658                       # Request fanout histogram
system.tol2bus.snoop_fanout::stdev           0.051486                       # Request fanout histogram
system.tol2bus.snoop_fanout::underflows             0      0.00%      0.00% # Request fanout histogram
system.tol2bus.snoop_fanout::0                 360988     99.73%     99.73% # Request fanout histogram
system.tol2bus.snoop_fanout::1                    962      0.27%    100.00% # Request fanout histogram
system.tol2bus.snoop_fanout::2                      0      0.00%    100.00% # Request fanout histogram
system.tol2bus.snoop_fanout::3                      0      0.00%    100.00% # Request fanout histogram
system.tol2bus.snoop_fanout::4                      0      0.00%    100.00% # Request fanout histogram
system.tol2bus.snoop_fanout::overflows              0      0.00%    100.00% # Request fanout histogram
system.tol2bus.snoop_fanout::min_value              0                       # Request fanout histogram
system.tol2bus.snoop_fanout::max_value              1                       # Request fanout histogram
system.tol2bus.snoop_fanout::total             361950                       # Request fanout histogram
system.tol2bus.reqLayer0.occupancy          243445500                       # Layer occupancy (ticks)
system.tol2bus.reqLayer0.utilization              2.7                       # Layer utilization (%)
system.tol2bus.respLayer1.occupancy         309595500                       # Layer occupancy (ticks)
system.tol2bus.respLayer1.utilization             3.4                       # Layer utilization (%)
system.tol2bus.respLayer0.occupancy           1384996                       # Layer occupancy (ticks)
system.tol2bus.respLayer0.utilization             0.0                       # Layer utilization (%)
system.voltage_domain.voltage                       1                       # Voltage in Volts
system.clk_domain.clock                          1000                       # Clock period in ticks
system.l2.pwrStateResidencyTicks::UNDEFINED 359103512472500                       # Cumulative time (in ticks) in various power states
system.l2.demand_hits::.switch_cpus.inst          103                       # number of demand (read+write) hits
system.l2.demand_hits::.switch_cpus.data        44854                       # number of demand (read+write) hits
system.l2.demand_hits::total                    44957                       # number of demand (read+write) hits
system.l2.overall_hits::.switch_cpus.inst          103                       # number of overall hits
system.l2.overall_hits::.switch_cpus.data        44854                       # number of overall hits
system.l2.overall_hits::total                   44957                       # number of overall hits
system.l2.demand_misses::.cpu.inst                  2                       # number of demand (read+write) misses
system.l2.demand_misses::.cpu.data                  3                       # number of demand (read+write) misses
system.l2.demand_misses::.switch_cpus.inst          819                       # number of demand (read+write) misses
system.l2.demand_misses::.switch_cpus.data       161545                       # number of demand (read+write) misses
system.l2.demand_misses::total                 162369                       # number of demand (read+write) misses
system.l2.overall_misses::.cpu.inst                 2                       # number of overall misses
system.l2.overall_misses::.cpu.data                 3                       # number of overall misses
system.l2.overall_misses::.switch_cpus.inst          819                       # number of overall misses
system.l2.overall_misses::.switch_cpus.data       161545                       # number of overall misses
system.l2.overall_misses::total                162369                       # number of overall misses
system.l2.demand_miss_latency::.switch_cpus.inst     70172500                       # number of demand (read+write) miss cycles
system.l2.demand_miss_latency::.switch_cpus.data  13335384500                       # number of demand (read+write) miss cycles
system.l2.demand_miss_latency::total      13405557000                       # number of demand (read+write) miss cycles
system.l2.overall_miss_latency::.switch_cpus.inst     70172500                       # number of overall miss cycles
system.l2.overall_miss_latency::.switch_cpus.data  13335384500                       # number of overall miss cycles
system.l2.overall_miss_latency::total     13405557000                       # number of overall miss cycles
system.l2.demand_accesses::.cpu.inst                2                       # number of demand (read+write) accesses
system.l2.demand_accesses::.cpu.data                3                       # number of demand (read+write) accesses
system.l2.demand_accesses::.switch_cpus.inst          922                       # number of demand (read+write) accesses
system.l2.demand_accesses::.switch_cpus.data       206399                       # number of demand (read+write) accesses
system.l2.demand_accesses::total               207326                       # number of demand (read+write) accesses
system.l2.overall_accesses::.cpu.inst               2                       # number of overall (read+write) accesses
system.l2.overall_accesses::.cpu.data               3                       # number of overall (read+write) accesses
system.l2.overall_accesses::.switch_cpus.inst          922                       # number of overall (read+write) accesses
system.l2.overall_accesses::.switch_cpus.data       206399                       # number of overall (read+write) accesses
system.l2.overall_accesses::total              207326                       # number of overall (read+write) accesses
system.l2.demand_miss_rate::.cpu.inst               1                       # miss rate for demand accesses
system.l2.demand_miss_rate::.cpu.data               1                       # miss rate for demand accesses
system.l2.demand_miss_rate::.switch_cpus.inst     0.888286                       # miss rate for demand accesses
system.l2.demand_miss_rate::.switch_cpus.data     0.782683                       # miss rate for demand accesses
system.l2.demand_miss_rate::total            0.783158                       # miss rate for demand accesses
system.l2.overall_miss_rate::.cpu.inst              1                       # miss rate for overall accesses
system.l2.overall_miss_rate::.cpu.data              1                       # miss rate for overall accesses
system.l2.overall_miss_rate::.switch_cpus.inst     0.888286                       # miss rate for overall accesses
system.l2.overall_miss_rate::.switch_cpus.data     0.782683                       # miss rate for overall accesses
system.l2.overall_miss_rate::total           0.783158                       # miss rate for overall accesses
system.l2.demand_avg_miss_latency::.switch_cpus.inst 85680.708181                       # average overall miss latency
system.l2.demand_avg_miss_latency::.switch_cpus.data 82549.038967                       # average overall miss latency
system.l2.demand_avg_miss_latency::total 82562.293295                       # average overall miss latency
system.l2.overall_avg_miss_latency::.switch_cpus.inst 85680.708181                       # average overall miss latency
system.l2.overall_avg_miss_latency::.switch_cpus.data 82549.038967                       # average overall miss latency
system.l2.overall_avg_miss_latency::total 82562.293295                       # average overall miss latency
system.l2.blocked_cycles::no_mshrs                  0                       # number of cycles access was blocked
system.l2.blocked_cycles::no_targets                0                       # number of cycles access was blocked
system.l2.blocked::no_mshrs                         0                       # number of cycles access was blocked
system.l2.blocked::no_targets                       0                       # number of cycles access was blocked
system.l2.avg_blocked_cycles::no_mshrs            nan                       # average number of cycles each access was blocked
system.l2.avg_blocked_cycles::no_targets          nan                       # average number of cycles each access was blocked
system.l2.writebacks::.writebacks               14877                       # number of writebacks
system.l2.writebacks::total                     14877                       # number of writebacks
system.l2.demand_mshr_misses::.switch_cpus.inst          819                       # number of demand (read+write) MSHR misses
system.l2.demand_mshr_misses::.switch_cpus.data       161545                       # number of demand (read+write) MSHR misses
system.l2.demand_mshr_misses::total            162364                       # number of demand (read+write) MSHR misses
system.l2.overall_mshr_misses::.switch_cpus.inst          819                       # number of overall MSHR misses
system.l2.overall_mshr_misses::.switch_cpus.data       161545                       # number of overall MSHR misses
system.l2.overall_mshr_misses::total           162364                       # number of overall MSHR misses
system.l2.demand_mshr_miss_latency::.switch_cpus.inst     61982500                       # number of demand (read+write) MSHR miss cycles
system.l2.demand_mshr_miss_latency::.switch_cpus.data  11719954500                       # number of demand (read+write) MSHR miss cycles
system.l2.demand_mshr_miss_latency::total  11781937000                       # number of demand (read+write) MSHR miss cycles
system.l2.overall_mshr_miss_latency::.switch_cpus.inst     61982500                       # number of overall MSHR miss cycles
system.l2.overall_mshr_miss_latency::.switch_cpus.data  11719954500                       # number of overall MSHR miss cycles
system.l2.overall_mshr_miss_latency::total  11781937000                       # number of overall MSHR miss cycles
system.l2.demand_mshr_miss_rate::.switch_cpus.inst     0.888286                       # mshr miss rate for demand accesses
system.l2.demand_mshr_miss_rate::.switch_cpus.data     0.782683                       # mshr miss rate for demand accesses
system.l2.demand_mshr_miss_rate::total       0.783134                       # mshr miss rate for demand accesses
system.l2.overall_mshr_miss_rate::.switch_cpus.inst     0.888286                       # mshr miss rate for overall accesses
system.l2.overall_mshr_miss_rate::.switch_cpus.data     0.782683                       # mshr miss rate for overall accesses
system.l2.overall_mshr_miss_rate::total      0.783134                       # mshr miss rate for overall accesses
system.l2.demand_avg_mshr_miss_latency::.switch_cpus.inst 75680.708181                       # average overall mshr miss latency
system.l2.demand_avg_mshr_miss_latency::.switch_cpus.data 72549.162772                       # average overall mshr miss latency
system.l2.demand_avg_mshr_miss_latency::total 72564.958981                       # average overall mshr miss latency
system.l2.overall_avg_mshr_miss_latency::.switch_cpus.inst 75680.708181                       # average overall mshr miss latency
system.l2.overall_avg_mshr_miss_latency::.switch_cpus.data 72549.162772                       # average overall mshr miss latency
system.l2.overall_avg_mshr_miss_latency::total 72564.958981                       # average overall mshr miss latency
system.l2.replacements                         154624                       # number of replacements
system.l2.WritebackDirty_hits::.writebacks        36401                       # number of WritebackDirty hits
system.l2.WritebackDirty_hits::total            36401                       # number of WritebackDirty hits
system.l2.WritebackDirty_accesses::.writebacks        36401                       # number of WritebackDirty accesses(hits+misses)
system.l2.WritebackDirty_accesses::total        36401                       # number of WritebackDirty accesses(hits+misses)
system.l2.WritebackClean_hits::.writebacks          464                       # number of WritebackClean hits
system.l2.WritebackClean_hits::total              464                       # number of WritebackClean hits
system.l2.WritebackClean_accesses::.writebacks          464                       # number of WritebackClean accesses(hits+misses)
system.l2.WritebackClean_accesses::total          464                       # number of WritebackClean accesses(hits+misses)
system.l2.CleanEvict_mshr_misses::.writebacks           50                       # number of CleanEvict MSHR misses
system.l2.CleanEvict_mshr_misses::total            50                       # number of CleanEvict MSHR misses
system.l2.CleanEvict_mshr_miss_rate::.writebacks          inf                       # mshr miss rate for CleanEvict accesses
system.l2.CleanEvict_mshr_miss_rate::total          inf                       # mshr miss rate for CleanEvict accesses
system.l2.ReadExReq_hits::.switch_cpus.data         1637                       # number of ReadExReq hits
system.l2.ReadExReq_hits::total                  1637                       # number of ReadExReq hits
system.l2.ReadExReq_misses::.switch_cpus.data         8432                       # number of ReadExReq misses
system.l2.ReadExReq_misses::total                8432                       # number of ReadExReq misses
system.l2.ReadExReq_miss_latency::.switch_cpus.data    689915000                       # number of ReadExReq miss cycles
system.l2.ReadExReq_miss_latency::total     689915000                       # number of ReadExReq miss cycles
system.l2.ReadExReq_accesses::.switch_cpus.data        10069                       # number of ReadExReq accesses(hits+misses)
system.l2.ReadExReq_accesses::total             10069                       # number of ReadExReq accesses(hits+misses)
system.l2.ReadExReq_miss_rate::.switch_cpus.data     0.837422                       # miss rate for ReadExReq accesses
system.l2.ReadExReq_miss_rate::total         0.837422                       # miss rate for ReadExReq accesses
system.l2.ReadExReq_avg_miss_latency::.switch_cpus.data 81821.038899                       # average ReadExReq miss latency
system.l2.ReadExReq_avg_miss_latency::total 81821.038899                       # average ReadExReq miss latency
system.l2.ReadExReq_mshr_misses::.switch_cpus.data         8432                       # number of ReadExReq MSHR misses
system.l2.ReadExReq_mshr_misses::total           8432                       # number of ReadExReq MSHR misses
system.l2.ReadExReq_mshr_miss_latency::.switch_cpus.data    605595000                       # number of ReadExReq MSHR miss cycles
system.l2.ReadExReq_mshr_miss_latency::total    605595000                       # number of ReadExReq MSHR miss cycles
system.l2.ReadExReq_mshr_miss_rate::.switch_cpus.data     0.837422                       # mshr miss rate for ReadExReq accesses
system.l2.ReadExReq_mshr_miss_rate::total     0.837422                       # mshr miss rate for ReadExReq accesses
system.l2.ReadExReq_avg_mshr_miss_latency::.switch_cpus.data 71821.038899                       # average ReadExReq mshr miss latency
system.l2.ReadExReq_avg_mshr_miss_latency::total 71821.038899                       # average ReadExReq mshr miss latency
system.l2.ReadCleanReq_hits::.switch_cpus.inst          103                       # number of ReadCleanReq hits
system.l2.ReadCleanReq_hits::total                103                       # number of ReadCleanReq hits
system.l2.ReadCleanReq_misses::.cpu.inst            2                       # number of ReadCleanReq misses
system.l2.ReadCleanReq_misses::.switch_cpus.inst          819                       # number of ReadCleanReq misses
system.l2.ReadCleanReq_misses::total              821                       # number of ReadCleanReq misses
system.l2.ReadCleanReq_miss_latency::.switch_cpus.inst     70172500                       # number of ReadCleanReq miss cycles
system.l2.ReadCleanReq_miss_latency::total     70172500                       # number of ReadCleanReq miss cycles
system.l2.ReadCleanReq_accesses::.cpu.inst            2                       # number of ReadCleanReq accesses(hits+misses)
system.l2.ReadCleanReq_accesses::.switch_cpus.inst          922                       # number of ReadCleanReq accesses(hits+misses)
system.l2.ReadCleanReq_accesses::total            924                       # number of ReadCleanReq accesses(hits+misses)
system.l2.ReadCleanReq_miss_rate::.cpu.inst            1                       # miss rate for ReadCleanReq accesses
system.l2.ReadCleanReq_miss_rate::.switch_cpus.inst     0.888286                       # miss rate for ReadCleanReq accesses
system.l2.ReadCleanReq_miss_rate::total      0.888528                       # miss rate for ReadCleanReq accesses
system.l2.ReadCleanReq_avg_miss_latency::.switch_cpus.inst 85680.708181                       # average ReadCleanReq miss latency
[...]
system.cpu.icache.tags.data_accesses         13956838                       # Number of data accesses
system.cpu.dtb.walker.pwrStateResidencyTicks::UNDEFINED 359130702685000                       # Cumulative time (in ticks) in various power states
system.cpu.interrupts.clk_domain.clock           8000                       # Clock period in ticks
system.cpu.itb_walker_cache.pwrStateResidencyTicks::UNDEFINED 359130702685000                       # Cumulative time (in ticks) in various power states
system.cpu.itb_walker_cache.blocked_cycles::no_mshrs            0                       # number of cycles access was blocked
system.cpu.itb_walker_cache.blocked_cycles::no_targets            0                       # number of cycles access was blocked
system.cpu.itb_walker_cache.blocked::no_mshrs            0                       # number of cycles access was blocked
system.cpu.itb_walker_cache.blocked::no_targets            0                       # number of cycles access was blocked
system.cpu.itb_walker_cache.avg_blocked_cycles::no_mshrs          nan                       # average number of cycles each access was blocked
system.cpu.itb_walker_cache.avg_blocked_cycles::no_targets          nan                       # average number of cycles each access was blocked
system.cpu.itb_walker_cache.replacements            0                       # number of replacements
system.cpu.itb_walker_cache.tags.pwrStateResidencyTicks::UNDEFINED 359130702685000                       # Cumulative time (in ticks) in various power states
system.cpu.itb_walker_cache.tags.tagsinuse            0                       # Cycle average of tags in use
system.cpu.itb_walker_cache.tags.total_refs            0                       # Total number of references to valid blocks.
system.cpu.itb_walker_cache.tags.sampled_refs            0                       # Sample count of references to valid blocks.
system.cpu.itb_walker_cache.tags.avg_refs          nan                       # Average number of references to valid blocks.
system.cpu.itb_walker_cache.tags.warmup_cycle            0                       # Cycle when the warmup percentage was hit.
system.cpu.itb_walker_cache.tags.tag_accesses            0                       # Number of tag accesses
system.cpu.itb_walker_cache.tags.data_accesses            0                       # Number of data accesses
system.cpu.itb.walker.pwrStateResidencyTicks::UNDEFINED 359130702685000                       # Cumulative time (in ticks) in various power states
system.cpu.dtb_walker_cache.pwrStateResidencyTicks::UNDEFINED 359130702685000                       # Cumulative time (in ticks) in various power states
system.cpu.dtb_walker_cache.blocked_cycles::no_mshrs            0                       # number of cycles access was blocked
system.cpu.dtb_walker_cache.blocked_cycles::no_targets            0                       # number of cycles access was blocked
system.cpu.dtb_walker_cache.blocked::no_mshrs            0                       # number of cycles access was blocked
system.cpu.dtb_walker_cache.blocked::no_targets            0                       # number of cycles access was blocked
system.cpu.dtb_walker_cache.avg_blocked_cycles::no_mshrs          nan                       # average number of cycles each access was blocked
system.cpu.dtb_walker_cache.avg_blocked_cycles::no_targets          nan                       # average number of cycles each access was blocked
system.cpu.dtb_walker_cache.replacements            0                       # number of replacements
system.cpu.dtb_walker_cache.tags.pwrStateResidencyTicks::UNDEFINED 359130702685000                       # Cumulative time (in ticks) in various power states
system.cpu.dtb_walker_cache.tags.tagsinuse            0                       # Cycle average of tags in use
system.cpu.dtb_walker_cache.tags.total_refs            0                       # Total number of references to valid blocks.
system.cpu.dtb_walker_cache.tags.sampled_refs            0                       # Sample count of references to valid blocks.
system.cpu.dtb_walker_cache.tags.avg_refs          nan                       # Average number of references to valid blocks.
system.cpu.dtb_walker_cache.tags.warmup_cycle            0                       # Cycle when the warmup percentage was hit.
system.cpu.dtb_walker_cache.tags.tag_accesses            0                       # Number of tag accesses
system.cpu.dtb_walker_cache.tags.data_accesses            0                       # Number of data accesses
system.cpu.dcache.pwrStateResidencyTicks::UNDEFINED 359130702685000                       # Cumulative time (in ticks) in various power states
system.cpu.dcache.demand_hits::.cpu.data            1                       # number of demand (read+write) hits
system.cpu.dcache.demand_hits::.switch_cpus.data     10741724                       # number of demand (read+write) hits
system.cpu.dcache.demand_hits::total         10741725                       # number of demand (read+write) hits
system.cpu.dcache.overall_hits::.cpu.data            1                       # number of overall hits
system.cpu.dcache.overall_hits::.switch_cpus.data     10741724                       # number of overall hits
system.cpu.dcache.overall_hits::total        10741725                       # number of overall hits
system.cpu.dcache.demand_misses::.cpu.data            3                       # number of demand (read+write) misses
system.cpu.dcache.demand_misses::.switch_cpus.data      3191155                       # number of demand (read+write) misses
system.cpu.dcache.demand_misses::total        3191158                       # number of demand (read+write) misses
system.cpu.dcache.overall_misses::.cpu.data            3                       # number of overall misses
system.cpu.dcache.overall_misses::.switch_cpus.data      3191155                       # number of overall misses
system.cpu.dcache.overall_misses::total       3191158                       # number of overall misses
system.cpu.dcache.demand_miss_latency::.switch_cpus.data 202483612071                       # number of demand (read+write) miss cycles
system.cpu.dcache.demand_miss_latency::total 202483612071                       # number of demand (read+write) miss cycles
system.cpu.dcache.overall_miss_latency::.switch_cpus.data 202483612071                       # number of overall miss cycles
system.cpu.dcache.overall_miss_latency::total 202483612071                       # number of overall miss cycles
system.cpu.dcache.demand_accesses::.cpu.data            4                       # number of demand (read+write) accesses
system.cpu.dcache.demand_accesses::.switch_cpus.data     13932879                       # number of demand (read+write) accesses
system.cpu.dcache.demand_accesses::total     13932883                       # number of demand (read+write) accesses
system.cpu.dcache.overall_accesses::.cpu.data            4                       # number of overall (read+write) accesses
system.cpu.dcache.overall_accesses::.switch_cpus.data     13932879                       # number of overall (read+write) accesses
system.cpu.dcache.overall_accesses::total     13932883                       # number of overall (read+write) accesses
system.cpu.dcache.demand_miss_rate::.cpu.data     0.750000                       # miss rate for demand accesses
system.cpu.dcache.demand_miss_rate::.switch_cpus.data     0.229038                       # miss rate for demand accesses
system.cpu.dcache.demand_miss_rate::total     0.229038                       # miss rate for demand accesses
system.cpu.dcache.overall_miss_rate::.cpu.data     0.750000                       # miss rate for overall accesses
system.cpu.dcache.overall_miss_rate::.switch_cpus.data     0.229038                       # miss rate for overall accesses
system.cpu.dcache.overall_miss_rate::total     0.229038                       # miss rate for overall accesses
system.cpu.dcache.demand_avg_miss_latency::.switch_cpus.data 63451.512719                       # average overall miss latency
system.cpu.dcache.demand_avg_miss_latency::total 63451.453068                       # average overall miss latency
system.cpu.dcache.overall_avg_miss_latency::.switch_cpus.data 63451.512719                       # average overall miss latency
system.cpu.dcache.overall_avg_miss_latency::total 63451.453068                       # average overall miss latency
system.cpu.dcache.blocked_cycles::no_mshrs      3966329                       # number of cycles access was blocked
system.cpu.dcache.blocked_cycles::no_targets            0                       # number of cycles access was blocked
system.cpu.dcache.blocked::no_mshrs            123910                       # number of cycles access was blocked
system.cpu.dcache.blocked::no_targets               0                       # number of cycles access was blocked
system.cpu.dcache.avg_blocked_cycles::no_mshrs    32.009757                       # average number of cycles each access was blocked
system.cpu.dcache.avg_blocked_cycles::no_targets          nan                       # average number of cycles each access was blocked
system.cpu.dcache.writebacks::.writebacks       154524                       # number of writebacks
system.cpu.dcache.writebacks::total            154524                       # number of writebacks
system.cpu.dcache.demand_mshr_hits::.switch_cpus.data      2357917                       # number of demand (read+write) MSHR hits
system.cpu.dcache.demand_mshr_hits::total      2357917                       # number of demand (read+write) MSHR hits
system.cpu.dcache.overall_mshr_hits::.switch_cpus.data      2357917                       # number of overall MSHR hits
system.cpu.dcache.overall_mshr_hits::total      2357917                       # number of overall MSHR hits
system.cpu.dcache.demand_mshr_misses::.switch_cpus.data       833238                       # number of demand (read+write) MSHR misses
system.cpu.dcache.demand_mshr_misses::total       833238                       # number of demand (read+write) MSHR misses
system.cpu.dcache.overall_mshr_misses::.switch_cpus.data       833238                       # number of overall MSHR misses
system.cpu.dcache.overall_mshr_misses::total       833238                       # number of overall MSHR misses
system.cpu.dcache.demand_mshr_miss_latency::.switch_cpus.data  56670045571                       # number of demand (read+write) MSHR miss cycles
system.cpu.dcache.demand_mshr_miss_latency::total  56670045571                       # number of demand (read+write) MSHR miss cycles
system.cpu.dcache.overall_mshr_miss_latency::.switch_cpus.data  56670045571                       # number of overall MSHR miss cycles
system.cpu.dcache.overall_mshr_miss_latency::total  56670045571                       # number of overall MSHR miss cycles
system.cpu.dcache.demand_mshr_miss_rate::.switch_cpus.data     0.059804                       # mshr miss rate for demand accesses
system.cpu.dcache.demand_mshr_miss_rate::total     0.059804                       # mshr miss rate for demand accesses
system.cpu.dcache.overall_mshr_miss_rate::.switch_cpus.data     0.059804                       # mshr miss rate for overall accesses
system.cpu.dcache.overall_mshr_miss_rate::total     0.059804                       # mshr miss rate for overall accesses
system.cpu.dcache.demand_avg_mshr_miss_latency::.switch_cpus.data 68011.835239                       # average overall mshr miss latency
system.cpu.dcache.demand_avg_mshr_miss_latency::total 68011.835239                       # average overall mshr miss latency
system.cpu.dcache.overall_avg_mshr_miss_latency::.switch_cpus.data 68011.835239                       # average overall mshr miss latency
system.cpu.dcache.overall_avg_mshr_miss_latency::total 68011.835239                       # average overall mshr miss latency
system.cpu.dcache.replacements                 832217                       # number of replacements
system.cpu.dcache.ReadReq_hits::.cpu.data            1                       # number of ReadReq hits
system.cpu.dcache.ReadReq_hits::.switch_cpus.data      9403794                       # number of ReadReq hits
system.cpu.dcache.ReadReq_hits::total         9403795                       # number of ReadReq hits
system.cpu.dcache.ReadReq_misses::.cpu.data            3                       # number of ReadReq misses
system.cpu.dcache.ReadReq_misses::.switch_cpus.data      3149812                       # number of ReadReq misses
system.cpu.dcache.ReadReq_misses::total       3149815                       # number of ReadReq misses
system.cpu.dcache.ReadReq_miss_latency::.switch_cpus.data 199494132000                       # number of ReadReq miss cycles
system.cpu.dcache.ReadReq_miss_latency::total 199494132000                       # number of ReadReq miss cycles
system.cpu.dcache.ReadReq_accesses::.cpu.data            4                       # number of ReadReq accesses(hits+misses)
system.cpu.dcache.ReadReq_accesses::.switch_cpus.data     12553606                       # number of ReadReq accesses(hits+misses)
system.cpu.dcache.ReadReq_accesses::total     12553610                       # number of ReadReq accesses(hits+misses)
system.cpu.dcache.ReadReq_miss_rate::.cpu.data     0.750000                       # miss rate for ReadReq accesses
system.cpu.dcache.ReadReq_miss_rate::.switch_cpus.data     0.250909                       # miss rate for ReadReq accesses
system.cpu.dcache.ReadReq_miss_rate::total     0.250909                       # miss rate for ReadReq accesses
system.cpu.dcache.ReadReq_avg_miss_latency::.switch_cpus.data 63335.250485                       # average ReadReq miss latency
system.cpu.dcache.ReadReq_avg_miss_latency::total 63335.190162                       # average ReadReq miss latency
system.cpu.dcache.ReadReq_mshr_hits::.switch_cpus.data      2357609                       # number of ReadReq MSHR hits
system.cpu.dcache.ReadReq_mshr_hits::total      2357609                       # number of ReadReq MSHR hits
system.cpu.dcache.ReadReq_mshr_misses::.switch_cpus.data       792203                       # number of ReadReq MSHR misses
system.cpu.dcache.ReadReq_mshr_misses::total       792203                       # number of ReadReq MSHR misses
system.cpu.dcache.ReadReq_mshr_miss_latency::.switch_cpus.data  53735035000                       # number of ReadReq MSHR miss cycles
system.cpu.dcache.ReadReq_mshr_miss_latency::total  53735035000                       # number of ReadReq MSHR miss cycles
system.cpu.dcache.ReadReq_mshr_miss_rate::.switch_cpus.data     0.063106                       # mshr miss rate for ReadReq accesses
system.cpu.dcache.ReadReq_mshr_miss_rate::total     0.063106                       # mshr miss rate for ReadReq accesses
system.cpu.dcache.ReadReq_avg_mshr_miss_latency::.switch_cpus.data 67829.880725                       # average ReadReq mshr miss latency
system.cpu.dcache.ReadReq_avg_mshr_miss_latency::total 67829.880725                       # average ReadReq mshr miss latency
system.cpu.dcache.WriteReq_hits::.switch_cpus.data      1337930                       # number of WriteReq hits
system.cpu.dcache.WriteReq_hits::total        1337930                       # number of WriteReq hits
system.cpu.dcache.WriteReq_misses::.switch_cpus.data        41343                       # number of WriteReq misses
system.cpu.dcache.WriteReq_misses::total        41343                       # number of WriteReq misses
system.cpu.dcache.WriteReq_miss_latency::.switch_cpus.data   2989480071                       # number of WriteReq miss cycles
system.cpu.dcache.WriteReq_miss_latency::total   2989480071                       # number of WriteReq miss cycles
system.cpu.dcache.WriteReq_accesses::.switch_cpus.data      1379273                       # number of WriteReq accesses(hits+misses)
system.cpu.dcache.WriteReq_accesses::total      1379273                       # number of WriteReq accesses(hits+misses)
system.cpu.dcache.WriteReq_miss_rate::.switch_cpus.data     0.029974                       # miss rate for WriteReq accesses
system.cpu.dcache.WriteReq_miss_rate::total     0.029974                       # miss rate for WriteReq accesses
system.cpu.dcache.WriteReq_avg_miss_latency::.switch_cpus.data 72309.219723                       # average WriteReq miss latency
system.cpu.dcache.WriteReq_avg_miss_latency::total 72309.219723                       # average WriteReq miss latency
system.cpu.dcache.WriteReq_mshr_hits::.switch_cpus.data          308                       # number of WriteReq MSHR hits
system.cpu.dcache.WriteReq_mshr_hits::total          308                       # number of WriteReq MSHR hits
system.cpu.dcache.WriteReq_mshr_misses::.switch_cpus.data        41035                       # number of WriteReq MSHR misses
system.cpu.dcache.WriteReq_mshr_misses::total        41035                       # number of WriteReq MSHR misses
system.cpu.dcache.WriteReq_mshr_miss_latency::.switch_cpus.data   2935010571                       # number of WriteReq MSHR miss cycles
system.cpu.dcache.WriteReq_mshr_miss_latency::total   2935010571                       # number of WriteReq MSHR miss cycles
system.cpu.dcache.WriteReq_mshr_miss_rate::.switch_cpus.data     0.029751                       # mshr miss rate for WriteReq accesses
system.cpu.dcache.WriteReq_mshr_miss_rate::total     0.029751                       # mshr miss rate for WriteReq accesses
system.cpu.dcache.WriteReq_avg_mshr_miss_latency::.switch_cpus.data 71524.566126                       # average WriteReq mshr miss latency
system.cpu.dcache.WriteReq_avg_mshr_miss_latency::total 71524.566126                       # average WriteReq mshr miss latency
system.cpu.dcache.tags.pwrStateResidencyTicks::UNDEFINED 359130702685000                       # Cumulative time (in ticks) in various power states
system.cpu.dcache.tags.tagsinuse             0.103123                       # Cycle average of tags in use
system.cpu.dcache.tags.total_refs            11574966                       # Total number of references to valid blocks.
system.cpu.dcache.tags.sampled_refs            833241                       # Sample count of references to valid blocks.
system.cpu.dcache.tags.avg_refs             13.891498                       # Average number of references to valid blocks.
system.cpu.dcache.tags.warmup_cycle      359094507845000                       # Cycle when the warmup percentage was hit.
system.cpu.dcache.tags.occ_blocks::.cpu.data     0.000002                       # Average occupied blocks per requestor
system.cpu.dcache.tags.occ_blocks::.switch_cpus.data     0.103122                       # Average occupied blocks per requestor
system.cpu.dcache.tags.occ_percent::.cpu.data     0.000000                       # Average percentage of cache occupancy
system.cpu.dcache.tags.occ_percent::.switch_cpus.data     0.000101                       # Average percentage of cache occupancy
system.cpu.dcache.tags.occ_percent::total     0.000101                       # Average percentage of cache occupancy
system.cpu.dcache.tags.occ_task_id_blocks::1024         1024                       # Occupied blocks per task id
system.cpu.dcache.tags.age_task_id_blocks_1024::0          243                       # Occupied blocks per task id
system.cpu.dcache.tags.age_task_id_blocks_1024::1          712                       # Occupied blocks per task id
system.cpu.dcache.tags.age_task_id_blocks_1024::2           69                       # Occupied blocks per task id
system.cpu.dcache.tags.occ_task_id_percent::1024            1                       # Percentage of cache occupancy per task id
system.cpu.dcache.tags.tag_accesses          28699007                       # Number of tag accesses
system.cpu.dcache.tags.data_accesses         28699007                       # Number of data accesses

---------- End Simulation Statistics   ----------
