
---------- Begin Simulation Statistics ----------
final_tick                               164628557344500                       # Number of ticks from beginning of simulation (restored from checkpoints and never reset)
host_inst_rate                                  35428                       # Simulator instruction rate (inst/s)
host_mem_usage                                 829044                       # Number of bytes of host memory used
host_op_rate                                    61078                       # Simulator op (including micro ops) rate (op/s)
host_seconds                                   282.26                       # Real time elapsed on the host
host_tick_rate                               84781323                       # Simulator tick rate (ticks/s)
sim_freq                                 1000000000000                       # Frequency of simulated ticks
sim_insts                                    10000015                       # Number of instructions simulated
sim_ops                                      17240060                       # Number of ops (including micro ops) simulated
sim_seconds                                  0.023931                       # Number of seconds simulated
sim_ticks                                 23930700750                       # Number of ticks simulated
system.cpu.Branches                                 3                       # Number of branches fetched
system.cpu.committedInsts                          11                       # Number of instructions committed
system.cpu.committedOps                            21                       # Number of ops (including micro ops) committed
system.cpu.dtb.rdAccesses                           5                       # TLB accesses on read requests
system.cpu.dtb.rdMisses                             0                       # TLB misses on read requests
system.cpu.dtb.wrAccesses                           2                       # TLB accesses on write requests
system.cpu.dtb.wrMisses                             0                       # TLB misses on write requests
system.cpu.idle_fraction                            0                       # Percentage of idle cycles
system.cpu.itb.rdAccesses                           0                       # TLB accesses on read requests
system.cpu.itb.rdMisses                             0                       # TLB misses on read requests
system.cpu.itb.wrAccesses                          11                       # TLB accesses on write requests
system.cpu.itb.wrMisses                             0                       # TLB misses on write requests
system.cpu.not_idle_fraction                        1                       # Percentage of non-idle cycles
system.cpu.numCycles                               21                       # number of cpu cycles simulated
system.cpu.numWorkItemsCompleted                    0                       # number of work items this cpu completed
system.cpu.numWorkItemsStarted                      0                       # number of work items this cpu started
system.cpu.num_busy_cycles                         21                       # Number of busy cycles
system.cpu.num_cc_register_reads                   15                       # number of times the CC registers were read
system.cpu.num_cc_register_writes                  10                       # number of times the CC registers were written
system.cpu.num_conditional_control_insts            3                       # number of instructions that are conditional controls
system.cpu.num_fp_alu_accesses                      0                       # Number of float alu accesses
system.cpu.num_fp_insts                             0                       # number of float instructions
system.cpu.num_fp_register_reads                    0                       # number of times the floating registers were read
system.cpu.num_fp_register_writes                   0                       # number of times the floating registers were written
system.cpu.num_func_calls                           0                       # number of times a function call or return occured
system.cpu.num_idle_cycles                          0                       # Number of idle cycles
system.cpu.num_int_alu_accesses                    21                       # Number of integer alu accesses
system.cpu.num_int_insts                           21                       # number of integer instructions
system.cpu.num_int_register_reads                  45                       # number of times the integer registers were read
system.cpu.num_int_register_writes                 16                       # number of times the integer registers were written
system.cpu.num_load_insts                           5                       # Number of load instructions
system.cpu.num_mem_refs                             7                       # number of memory refs
system.cpu.num_store_insts                          2                       # Number of store instructions
system.cpu.num_vec_alu_accesses                     0                       # Number of vector alu accesses
system.cpu.num_vec_insts                            0                       # number of vector instructions
system.cpu.num_vec_register_reads                   0                       # number of times the vector registers were read
system.cpu.num_vec_register_writes                  0                       # number of times the vector registers were written
system.cpu.op_class::No_OpClass                     0      0.00%      0.00% # Class of executed instruction
system.cpu.op_class::IntAlu                        14     66.67%     66.67% # Class of executed instruction
system.cpu.op_class::IntMult                        0      0.00%     66.67% # Class of executed instruction
system.cpu.op_class::IntDiv                         0      0.00%     66.67% # Class of executed instruction
system.cpu.op_class::FloatAdd                       0      0.00%     66.67% # Class of executed instruction
system.cpu.op_class::FloatCmp                       0      0.00%     66.67% # Class of executed instruction
system.cpu.op_class::FloatCvt                       0      0.00%     66.67% # Class of executed instruction
system.cpu.op_class::FloatMult                      0      0.00%     66.67% # Class of executed instruction
system.cpu.op_class::FloatMultAcc                   0      0.00%     66.67% # Class of executed instruction
system.cpu.op_class::FloatDiv                       0      0.00%     66.67% # Class of executed instruction
system.cpu.op_class::FloatMisc                      0      0.00%     66.67% # Class of executed instruction
system.cpu.op_class::FloatSqrt                      0      0.00%     66.67% # Class of executed instruction
system.cpu.op_class::SimdAdd                        0      0.00%     66.67% # Class of executed instruction
system.cpu.op_class::SimdAddAcc                     0      0.00%     66.67% # Class of executed instruction
system.cpu.op_class::SimdAlu                        0      0.00%     66.67% # Class of executed instruction
system.cpu.op_class::SimdCmp                        0      0.00%     66.67% # Class of executed instruction
system.cpu.op_class::SimdCvt                        0      0.00%     66.67% # Class of executed instruction
system.cpu.op_class::SimdMisc                       0      0.00%     66.67% # Class of executed instruction
system.cpu.op_class::SimdMult                       0      0.00%     66.67% # Class of executed instruction
system.cpu.op_class::SimdMultAcc                    0      0.00%     66.67% # Class of executed instruction
system.cpu.op_class::SimdShift                      0      0.00%     66.67% # Class of executed instruction
system.cpu.op_class::SimdShiftAcc                   0      0.00%     66.67% # Class of executed instruction
system.cpu.op_class::SimdDiv                        0      0.00%     66.67% # Class of executed instruction
system.cpu.op_class::SimdSqrt                       0      0.00%     66.67% # Class of executed instruction
system.cpu.op_class::SimdFloatAdd                   0      0.00%     66.67% # Class of executed instruction
system.cpu.op_class::SimdFloatAlu                   0      0.00%     66.67% # Class of executed instruction
system.cpu.op_class::SimdFloatCmp                   0      0.00%     66.67% # Class of executed instruction
system.cpu.op_class::SimdFloatCvt                   0      0.00%     66.67% # Class of executed instruction
system.cpu.op_class::SimdFloatDiv                   0      0.00%     66.67% # Class of executed instruction
system.cpu.op_class::SimdFloatMisc                  0      0.00%     66.67% # Class of executed instruction
system.cpu.op_class::SimdFloatMult                  0      0.00%     66.67% # Class of executed instruction
system.cpu.op_class::SimdFloatMultAcc               0      0.00%     66.67% # Class of executed instruction
system.cpu.op_class::SimdFloatSqrt                  0      0.00%     66.67% # Class of executed instruction
system.cpu.op_class::SimdReduceAdd                  0      0.00%     66.67% # Class of executed instruction
system.cpu.op_class::SimdReduceAlu                  0      0.00%     66.67% # Class of executed instruction
system.cpu.op_class::SimdReduceCmp                  0      0.00%     66.67% # Class of executed instruction
system.cpu.op_class::SimdFloatReduceAdd             0      0.00%     66.67% # Class of executed instruction
system.cpu.op_class::SimdFloatReduceCmp             0      0.00%     66.67% # Class of executed instruction
system.cpu.op_class::SimdAes                        0      0.00%     66.67% # Class of executed instruction
system.cpu.op_class::SimdAesMix                     0      0.00%     66.67% # Class of executed instruction
system.cpu.op_class::SimdSha1Hash                   0      0.00%     66.67% # Class of executed instruction
system.cpu.op_class::SimdSha1Hash2                  0      0.00%     66.67% # Class of executed instruction
system.cpu.op_class::SimdSha256Hash                 0      0.00%     66.67% # Class of executed instruction
system.cpu.op_class::SimdSha256Hash2                0      0.00%     66.67% # Class of executed instruction
system.cpu.op_class::SimdShaSigma2                  0      0.00%     66.67% # Class of executed instruction
system.cpu.op_class::SimdShaSigma3                  0      0.00%     66.67% # Class of executed instruction
system.cpu.op_class::SimdPredAlu                    0      0.00%     66.67% # Class of executed instruction
system.cpu.op_class::MemRead                        5     23.81%     90.48% # Class of executed instruction
system.cpu.op_class::MemWrite                       2      9.52%    100.00% # Class of executed instruction
system.cpu.op_class::FloatMemRead                   0      0.00%    100.00% # Class of executed instruction
system.cpu.op_class::FloatMemWrite                  0      0.00%    100.00% # Class of executed instruction
system.cpu.op_class::IprAccess                      0      0.00%    100.00% # Class of executed instruction
system.cpu.op_class::InstPrefetch                   0      0.00%    100.00% # Class of executed instruction
system.cpu.op_class::total                         21                       # Class of executed instruction
system.cpu.workload.numSyscalls                     0                       # Number of system calls
system.membus.snoop_filter.hit_multi_requests            0                       # Number of requests hitting in the snoop filter with multiple (>1) holders of the requested data.
system.membus.snoop_filter.hit_multi_snoops            0                       # Number of snoops hitting in the snoop filter with multiple (>1) holders of the requested data.
system.membus.snoop_filter.hit_single_requests       483390                       # Number of requests hitting in the snoop filter with a single holder of the requested data.
system.membus.snoop_filter.hit_single_snoops            0                       # Number of snoops hitting in the snoop filter with a single holder of the requested data.
system.membus.snoop_filter.tot_requests        975034                       # Total number of requests made to the snoop filter.
system.membus.snoop_filter.tot_snoops               0                       # Total number of snoops made to the snoop filter.
system.switch_cpus.branchPred.BTBCorrect            0                       # Number of correct BTB predictions (this stat may not work properly.
system.switch_cpus.branchPred.BTBHitPct      0.000000                       # BTB Hit Percentage
system.switch_cpus.branchPred.BTBHits               0                       # Number of BTB hits
system.switch_cpus.branchPred.BTBLookups      6496186                       # Number of BTB lookups
system.switch_cpus.branchPred.RASInCorrect            1                       # Number of incorrect RAS predictions.
system.switch_cpus.branchPred.condIncorrect       561830                       # Number of conditional branches incorrect
system.switch_cpus.branchPred.condPredicted      6991900                       # Number of conditional branches predicted
system.switch_cpus.branchPred.indirectHits      2723437                       # Number of indirect target hits.
system.switch_cpus.branchPred.indirectLookups      6496186                       # Number of indirect predictor lookups.
system.switch_cpus.branchPred.indirectMisses      3772749                       # Number of indirect misses.
system.switch_cpus.branchPred.lookups         7141883                       # Number of BP lookups
system.switch_cpus.branchPred.usedRAS           82167                       # Number of times the RAS was used to get a target.
system.switch_cpus.branchPredindirectMispredicted       384583                       # Number of mispredicted indirect branches.
system.switch_cpus.cc_regfile_reads          17583901                       # number of cc regfile reads
system.switch_cpus.cc_regfile_writes         11395820                       # number of cc regfile writes
system.switch_cpus.commit.amos                      0                       # Number of atomic instructions committed
system.switch_cpus.commit.branchMispredicts       561852                       # The number of times a branch was mispredicted
system.switch_cpus.commit.branches            2476523                       # Number of branches committed
system.switch_cpus.commit.bw_lim_events       1019683                       # number cycles where commit BW limit reached
system.switch_cpus.commit.commitSquashedInsts     19315902                       # The number of squashed insts skipped by commit
system.switch_cpus.commit.committedInsts     10000004                       # Number of instructions committed
system.switch_cpus.commit.committedOps       17240039                       # Number of ops (including micro ops) committed
system.switch_cpus.commit.committed_per_cycle::samples     44834914                       # Number of insts commited each cycle
system.switch_cpus.commit.committed_per_cycle::mean     0.384523                       # Number of insts commited each cycle
system.switch_cpus.commit.committed_per_cycle::stdev     1.413388                       # Number of insts commited each cycle
system.switch_cpus.commit.committed_per_cycle::underflows            0      0.00%      0.00% # Number of insts commited each cycle
system.switch_cpus.commit.committed_per_cycle::0     40036587     89.30%     89.30% # Number of insts commited each cycle
system.switch_cpus.commit.committed_per_cycle::1      1670449      3.73%     93.02% # Number of insts commited each cycle
system.switch_cpus.commit.committed_per_cycle::2       368803      0.82%     93.85% # Number of insts commited each cycle
system.switch_cpus.commit.committed_per_cycle::3       934034      2.08%     95.93% # Number of insts commited each cycle
system.switch_cpus.commit.committed_per_cycle::4       401841      0.90%     96.83% # Number of insts commited each cycle
system.switch_cpus.commit.committed_per_cycle::5       227603      0.51%     97.33% # Number of insts commited each cycle
system.switch_cpus.commit.committed_per_cycle::6       104359      0.23%     97.57% # Number of insts commited each cycle
system.switch_cpus.commit.committed_per_cycle::7        71555      0.16%     97.73% # Number of insts commited each cycle
system.switch_cpus.commit.committed_per_cycle::8      1019683      2.27%    100.00% # Number of insts commited each cycle
system.switch_cpus.commit.committed_per_cycle::overflows            0      0.00%    100.00% # Number of insts commited each cycle
system.switch_cpus.commit.committed_per_cycle::min_value            0                       # Number of insts commited each cycle
system.switch_cpus.commit.committed_per_cycle::max_value            8                       # Number of insts commited each cycle
system.switch_cpus.commit.committed_per_cycle::total     44834914                       # Number of insts commited each cycle
system.switch_cpus.commit.fp_insts                  0                       # Number of committed floating point instructions.
system.switch_cpus.commit.function_calls         5900                       # Number of function calls committed.
system.switch_cpus.commit.int_insts          17177967                       # Number of committed integer instructions.
system.switch_cpus.commit.loads               3454883                       # Number of loads committed
system.switch_cpus.commit.membars                   0                       # Number of memory barriers committed
system.switch_cpus.commit.op_class_0::No_OpClass        56255      0.33%      0.33% # Class of committed instruction
system.switch_cpus.commit.op_class_0::IntAlu     13093980     75.95%     76.28% # Class of committed instruction
system.switch_cpus.commit.op_class_0::IntMult          808      0.00%     76.28% # Class of committed instruction
system.switch_cpus.commit.op_class_0::IntDiv            0      0.00%     76.28% # Class of committed instruction
system.switch_cpus.commit.op_class_0::FloatAdd            0      0.00%     76.28% # Class of committed instruction
system.switch_cpus.commit.op_class_0::FloatCmp            0      0.00%     76.28% # Class of committed instruction
system.switch_cpus.commit.op_class_0::FloatCvt            0      0.00%     76.28% # Class of committed instruction
system.switch_cpus.commit.op_class_0::FloatMult            0      0.00%     76.28% # Class of committed instruction
system.switch_cpus.commit.op_class_0::FloatMultAcc            0      0.00%     76.28% # Class of committed instruction
system.switch_cpus.commit.op_class_0::FloatDiv            0      0.00%     76.28% # Class of committed instruction
system.switch_cpus.commit.op_class_0::FloatMisc            0      0.00%     76.28% # Class of committed instruction
system.switch_cpus.commit.op_class_0::FloatSqrt            0      0.00%     76.28% # Class of committed instruction
system.switch_cpus.commit.op_class_0::SimdAdd            0      0.00%     76.28% # Class of committed instruction
system.switch_cpus.commit.op_class_0::SimdAddAcc            0      0.00%     76.28% # Class of committed instruction
system.switch_cpus.commit.op_class_0::SimdAlu            0      0.00%     76.28% # Class of committed instruction
system.switch_cpus.commit.op_class_0::SimdCmp            0      0.00%     76.28% # Class of committed instruction
system.switch_cpus.commit.op_class_0::SimdCvt            0      0.00%     76.28% # Class of committed instruction
system.switch_cpus.commit.op_class_0::SimdMisc            0      0.00%     76.28% # Class of committed instruction
system.switch_cpus.commit.op_class_0::SimdMult            0      0.00%     76.28% # Class of committed instruction
system.switch_cpus.commit.op_class_0::SimdMultAcc            0      0.00%     76.28% # Class of committed instruction
system.switch_cpus.commit.op_class_0::SimdShift            0      0.00%     76.28% # Class of committed instruction
system.switch_cpus.commit.op_class_0::SimdShiftAcc            0      0.00%     76.28% # Class of committed instruction
system.switch_cpus.commit.op_class_0::SimdDiv            0      0.00%     76.28% # Class of committed instruction
system.switch_cpus.commit.op_class_0::SimdSqrt            0      0.00%     76.28% # Class of committed instruction
system.switch_cpus.commit.op_class_0::SimdFloatAdd            0      0.00%     76.28% # Class of committed instruction
system.switch_cpus.commit.op_class_0::SimdFloatAlu            0      0.00%     76.28% # Class of committed instruction
system.switch_cpus.commit.op_class_0::SimdFloatCmp            0      0.00%     76.28% # Class of committed instruction
system.switch_cpus.commit.op_class_0::SimdFloatCvt            0      0.00%     76.28% # Class of committed instruction
system.switch_cpus.commit.op_class_0::SimdFloatDiv            0      0.00%     76.28% # Class of committed instruction
system.switch_cpus.commit.op_class_0::SimdFloatMisc            0      0.00%     76.28% # Class of committed instruction
system.switch_cpus.commit.op_class_0::SimdFloatMult            0      0.00%     76.28% # Class of committed instruction
system.switch_cpus.commit.op_class_0::SimdFloatMultAcc            0      0.00%     76.28% # Class of committed instruction
system.switch_cpus.commit.op_class_0::SimdFloatSqrt            0      0.00%     76.28% # Class of committed instruction
system.switch_cpus.commit.op_class_0::SimdReduceAdd            0      0.00%     76.28% # Class of committed instruction
system.switch_cpus.commit.op_class_0::SimdReduceAlu            0      0.00%     76.28% # Class of committed instruction
system.switch_cpus.commit.op_class_0::SimdReduceCmp            0      0.00%     76.28% # Class of committed instruction
system.switch_cpus.commit.op_class_0::SimdFloatReduceAdd            0      0.00%     76.28% # Class of committed instruction
system.switch_cpus.commit.op_class_0::SimdFloatReduceCmp            0      0.00%     76.28% # Class of committed instruction
system.switch_cpus.commit.op_class_0::SimdAes            0      0.00%     76.28% # Class of committed instruction
system.switch_cpus.commit.op_class_0::SimdAesMix            0      0.00%     76.28% # Class of committed instruction
system.switch_cpus.commit.op_class_0::SimdSha1Hash            0      0.00%     76.28% # Class of committed instruction
system.switch_cpus.commit.op_class_0::SimdSha1Hash2            0      0.00%     76.28% # Class of committed instruction
system.switch_cpus.commit.op_class_0::SimdSha256Hash            0      0.00%     76.28% # Class of committed instruction
system.switch_cpus.commit.op_class_0::SimdSha256Hash2            0      0.00%     76.28% # Class of committed instruction
system.switch_cpus.commit.op_class_0::SimdShaSigma2            0      0.00%     76.28% # Class of committed instruction
system.switch_cpus.commit.op_class_0::SimdShaSigma3            0      0.00%     76.28% # Class of committed instruction
system.switch_cpus.commit.op_class_0::SimdPredAlu            0      0.00%     76.28% # Class of committed instruction
system.switch_cpus.commit.op_class_0::MemRead      3454883     20.04%     96.32% # Class of committed instruction
system.switch_cpus.commit.op_class_0::MemWrite       634113      3.68%    100.00% # Class of committed instruction
system.switch_cpus.commit.op_class_0::FloatMemRead            0      0.00%    100.00% # Class of committed instruction
system.switch_cpus.commit.op_class_0::FloatMemWrite            0      0.00%    100.00% # Class of committed instruction
system.switch_cpus.commit.op_class_0::IprAccess            0      0.00%    100.00% # Class of committed instruction
system.switch_cpus.commit.op_class_0::InstPrefetch            0      0.00%    100.00% # Class of committed instruction
system.switch_cpus.commit.op_class_0::total     17240039                       # Class of committed instruction
system.switch_cpus.commit.refs                4088996                       # Number of memory references committed
system.switch_cpus.commit.swp_count                 0                       # Number of s/w prefetches committed
system.switch_cpus.commit.vec_insts                 0                       # Number of committed Vector instructions.
system.switch_cpus.committedInsts            10000004                       # Number of Instructions Simulated
system.switch_cpus.committedOps              17240039                       # Number of Ops (including micro ops) Simulated
system.switch_cpus.cpi                       4.786136                       # CPI: Cycles Per Instruction
system.switch_cpus.cpi_total                 4.786136                       # CPI: Total CPI of All Threads
system.switch_cpus.decode.BlockedCycles      38672527                       # Number of cycles decode is blocked
system.switch_cpus.decode.DecodedInsts       44182964                       # Number of instructions handled by decode
system.switch_cpus.decode.IdleCycles          2383961                       # Number of cycles decode is idle
system.switch_cpus.decode.RunCycles           4809986                       # Number of cycles decode is running
system.switch_cpus.decode.SquashCycles         562529                       # Number of cycles decode is squashing
system.switch_cpus.decode.UnblockCycles       1428559                       # Number of cycles decode is unblocking
system.switch_cpus.dtb.rdAccesses             5299846                       # TLB accesses on read requests
system.switch_cpus.dtb.rdMisses                786384                       # TLB misses on read requests
system.switch_cpus.dtb.wrAccesses              968088                       # TLB accesses on write requests
system.switch_cpus.dtb.wrMisses                 25127                       # TLB misses on write requests
system.switch_cpus.fetch.Branches             7141883                       # Number of branches that fetch encountered
system.switch_cpus.fetch.CacheLines           2464311                       # Number of cache lines fetched
system.switch_cpus.fetch.Cycles              44539727                       # Number of cycles fetch has run and was not squashing or blocked
system.switch_cpus.fetch.IcacheSquashes        121167                       # Number of outstanding Icache misses that were squashed
system.switch_cpus.fetch.Insts               29401171                       # Number of instructions fetch has processed
system.switch_cpus.fetch.MiscStallCycles           22                       # Number of cycles fetch has spent waiting on interrupts, or bad addresses, or out of MSHRs
system.switch_cpus.fetch.PendingTrapStallCycles          135                       # Number of stall cycles due to pending traps
system.switch_cpus.fetch.SquashCycles         1125058                       # Number of cycles fetch has spent squashing
system.switch_cpus.fetch.branchRate          0.149220                       # Number of branch fetches per cycle
system.switch_cpus.fetch.icacheStallCycles      2755155                       # Number of cycles fetch is stalled on an Icache miss
system.switch_cpus.fetch.predictedBranches      2805604                       # Number of branches that fetch has predicted taken
system.switch_cpus.fetch.rate                0.614298                       # Number of inst fetches per cycle
system.switch_cpus.fetch.rateDist::samples     47857568                       # Number of instructions fetched each cycle (Total)
system.switch_cpus.fetch.rateDist::mean      1.062711                       # Number of instructions fetched each cycle (Total)
system.switch_cpus.fetch.rateDist::stdev     2.502804                       # Number of instructions fetched each cycle (Total)
system.switch_cpus.fetch.rateDist::underflows            0      0.00%      0.00% # Number of instructions fetched each cycle (Total)
system.switch_cpus.fetch.rateDist::0         39460812     82.45%     82.45% # Number of instructions fetched each cycle (Total)
system.switch_cpus.fetch.rateDist::1           385663      0.81%     83.26% # Number of instructions fetched each cycle (Total)
system.switch_cpus.fetch.rateDist::2           579988      1.21%     84.47% # Number of instructions fetched each cycle (Total)
system.switch_cpus.fetch.rateDist::3           536515      1.12%     85.59% # Number of instructions fetched each cycle (Total)
system.switch_cpus.fetch.rateDist::4           859225      1.80%     87.39% # Number of instructions fetched each cycle (Total)
system.switch_cpus.fetch.rateDist::5           964392      2.02%     89.40% # Number of instructions fetched each cycle (Total)
system.switch_cpus.fetch.rateDist::6           370691      0.77%     90.18% # Number of instructions fetched each cycle (Total)
system.switch_cpus.fetch.rateDist::7           381694      0.80%     90.98% # Number of instructions fetched each cycle (Total)
system.switch_cpus.fetch.rateDist::8          4318588      9.02%    100.00% # Number of instructions fetched each cycle (Total)
system.switch_cpus.fetch.rateDist::overflows            0      0.00%    100.00% # Number of instructions fetched each cycle (Total)
system.switch_cpus.fetch.rateDist::min_value            0                       # Number of instructions fetched each cycle (Total)
system.switch_cpus.fetch.rateDist::max_value            8                       # Number of instructions fetched each cycle (Total)
system.switch_cpus.fetch.rateDist::total     47857568                       # Number of instructions fetched each cycle (Total)
system.switch_cpus.fp_regfile_writes               56                       # number of floating regfile writes
system.switch_cpus.idleCycles                    3812                       # Total number of cycles that the CPU has spent unscheduled due to idling
system.switch_cpus.iew.branchMispredicts       737436                       # Number of branch mispredicts detected at execute
system.switch_cpus.iew.exec_branches          3732811                       # Number of branches executed
system.switch_cpus.iew.exec_nop                     0                       # number of nop insts executed
system.switch_cpus.iew.exec_rate             0.725521                       # Inst execution rate
system.switch_cpus.iew.exec_refs             11346935                       # number of memory reference insts executed
system.switch_cpus.iew.exec_stores             967987                       # Number of stores executed
system.switch_cpus.iew.exec_swp                     0                       # number of swp insts executed
system.switch_cpus.iew.iewBlockCycles        20862246                       # Number of cycles IEW is blocking
system.switch_cpus.iew.iewDispLoadInsts       6655036                       # Number of dispatched load instructions
system.switch_cpus.iew.iewDispNonSpecInsts            0                       # Number of dispatched non-speculative instructions
system.switch_cpus.iew.iewDispSquashedInsts        73246                       # Number of squashed instructions skipped by dispatch
system.switch_cpus.iew.iewDispStoreInsts      1451335                       # Number of dispatched store instructions
system.switch_cpus.iew.iewDispatchedInsts     36540017                       # Number of instructions dispatched to IQ
system.switch_cpus.iew.iewExecLoadInsts      10378948                       # Number of load instructions executed
system.switch_cpus.iew.iewExecSquashedInsts      1280836                       # Number of squashed instructions skipped in execute
system.switch_cpus.iew.iewExecutedInsts      34724445                       # Number of executed instructions
system.switch_cpus.iew.iewIQFullEvents         231288                       # Number of times the IQ has become full, causing a stall
system.switch_cpus.iew.iewIdleCycles                0                       # Number of cycles IEW is idle
system.switch_cpus.iew.iewLSQFullEvents       2466675                       # Number of times the LSQ has become full, causing a stall
system.switch_cpus.iew.iewSquashCycles         562529                       # Number of cycles IEW is squashing
system.switch_cpus.iew.iewUnblockCycles       2849547                       # Number of cycles IEW is unblocking
system.switch_cpus.iew.lsq.thread0.blockedLoads            0                       # Number of blocked loads due to partial load-store forwarding
system.switch_cpus.iew.lsq.thread0.cacheBlocked       572540                       # Number of times an access to memory failed due to the cache being blocked
system.switch_cpus.iew.lsq.thread0.forwLoads       114027                       # Number of loads that had data forwarded from stores
system.switch_cpus.iew.lsq.thread0.ignoredResponses          818                       # Number of memory responses ignored because the instruction is squashed
system.switch_cpus.iew.lsq.thread0.invAddrLoads            0                       # Number of loads ignored due to an invalid address
system.switch_cpus.iew.lsq.thread0.invAddrSwpfs            0                       # Number of software prefetches ignored due to an invalid address
system.switch_cpus.iew.lsq.thread0.memOrderViolation         1336                       # Number of memory ordering violations
system.switch_cpus.iew.lsq.thread0.rescheduledLoads            0                       # Number of loads that were rescheduled
system.switch_cpus.iew.lsq.thread0.squashedLoads      3200151                       # Number of loads squashed
system.switch_cpus.iew.lsq.thread0.squashedStores       817220                       # Number of stores squashed
system.switch_cpus.iew.memOrderViolationEvents         1336                       # Number of memory order violations
system.switch_cpus.iew.predictedNotTakenIncorrect       586214                       # Number of branches that were predicted not taken incorrectly
system.switch_cpus.iew.predictedTakenIncorrect       151222                       # Number of branches that were predicted taken incorrectly
system.switch_cpus.iew.wb_consumers          30468657                       # num instructions consuming a value
system.switch_cpus.iew.wb_count              28620568                       # cumulative count of insts written-back
system.switch_cpus.iew.wb_fanout             0.684458                       # average fanout of values written-back
system.switch_cpus.iew.wb_producers          20854521                       # num instructions producing a value
system.switch_cpus.iew.wb_rate               0.597989                       # insts written-back per cycle
system.switch_cpus.iew.wb_sent               28768620                       # cumulative count of insts sent to commit
system.switch_cpus.int_regfile_reads         47285052                       # number of integer regfile reads
system.switch_cpus.int_regfile_writes        23695432                       # number of integer regfile writes
system.switch_cpus.ipc                       0.208937                       # IPC: Instructions Per Cycle
system.switch_cpus.ipc_total                 0.208937                       # IPC: Total IPC of All Threads
system.switch_cpus.iq.FU_type_0::No_OpClass       337409      0.94%      0.94% # Type of FU issued
system.switch_cpus.iq.FU_type_0::IntAlu      23997979     66.65%     67.59% # Type of FU issued
system.switch_cpus.iq.FU_type_0::IntMult         1060      0.00%     67.59% # Type of FU issued
system.switch_cpus.iq.FU_type_0::IntDiv             0      0.00%     67.59% # Type of FU issued
system.switch_cpus.iq.FU_type_0::FloatAdd            0      0.00%     67.59% # Type of FU issued
system.switch_cpus.iq.FU_type_0::FloatCmp            0      0.00%     67.59% # Type of FU issued
system.switch_cpus.iq.FU_type_0::FloatCvt            0      0.00%     67.59% # Type of FU issued
system.switch_cpus.iq.FU_type_0::FloatMult            0      0.00%     67.59% # Type of FU issued
system.switch_cpus.iq.FU_type_0::FloatMultAcc            0      0.00%     67.59% # Type of FU issued
system.switch_cpus.iq.FU_type_0::FloatDiv            0      0.00%     67.59% # Type of FU issued
system.switch_cpus.iq.FU_type_0::FloatMisc            0      0.00%     67.59% # Type of FU issued
system.switch_cpus.iq.FU_type_0::FloatSqrt            0      0.00%     67.59% # Type of FU issued
system.switch_cpus.iq.FU_type_0::SimdAdd            0      0.00%     67.59% # Type of FU issued
system.switch_cpus.iq.FU_type_0::SimdAddAcc            0      0.00%     67.59% # Type of FU issued
system.switch_cpus.iq.FU_type_0::SimdAlu            0      0.00%     67.59% # Type of FU issued
system.switch_cpus.iq.FU_type_0::SimdCmp            0      0.00%     67.59% # Type of FU issued
system.switch_cpus.iq.FU_type_0::SimdCvt            0      0.00%     67.59% # Type of FU issued
system.switch_cpus.iq.FU_type_0::SimdMisc            0      0.00%     67.59% # Type of FU issued
system.switch_cpus.iq.FU_type_0::SimdMult            0      0.00%     67.59% # Type of FU issued
system.switch_cpus.iq.FU_type_0::SimdMultAcc            0      0.00%     67.59% # Type of FU issued
system.switch_cpus.iq.FU_type_0::SimdShift            0      0.00%     67.59% # Type of FU issued
system.switch_cpus.iq.FU_type_0::SimdShiftAcc            0      0.00%     67.59% # Type of FU issued
system.switch_cpus.iq.FU_type_0::SimdDiv            0      0.00%     67.59% # Type of FU issued
system.switch_cpus.iq.FU_type_0::SimdSqrt            0      0.00%     67.59% # Type of FU issued
system.switch_cpus.iq.FU_type_0::SimdFloatAdd            0      0.00%     67.59% # Type of FU issued
system.switch_cpus.iq.FU_type_0::SimdFloatAlu            0      0.00%     67.59% # Type of FU issued
system.switch_cpus.iq.FU_type_0::SimdFloatCmp            0      0.00%     67.59% # Type of FU issued
system.switch_cpus.iq.FU_type_0::SimdFloatCvt            0      0.00%     67.59% # Type of FU issued
system.switch_cpus.iq.FU_type_0::SimdFloatDiv            0      0.00%     67.59% # Type of FU issued
system.switch_cpus.iq.FU_type_0::SimdFloatMisc            0      0.00%     67.59% # Type of FU issued
system.switch_cpus.iq.FU_type_0::SimdFloatMult            0      0.00%     67.59% # Type of FU issued
system.switch_cpus.iq.FU_type_0::SimdFloatMultAcc            0      0.00%     67.59% # Type of FU issued
system.switch_cpus.iq.FU_type_0::SimdFloatSqrt            0      0.00%     67.59% # Type of FU issued
system.switch_cpus.iq.FU_type_0::SimdReduceAdd            0      0.00%     67.59% # Type of FU issued
system.switch_cpus.iq.FU_type_0::SimdReduceAlu            0      0.00%     67.59% # Type of FU issued
system.switch_cpus.iq.FU_type_0::SimdReduceCmp            0      0.00%     67.59% # Type of FU issued
system.switch_cpus.iq.FU_type_0::SimdFloatReduceAdd            0      0.00%     67.59% # Type of FU issued
system.switch_cpus.iq.FU_type_0::SimdFloatReduceCmp            0      0.00%     67.59% # Type of FU issued
system.switch_cpus.iq.FU_type_0::SimdAes            0      0.00%     67.59% # Type of FU issued
system.switch_cpus.iq.FU_type_0::SimdAesMix            0      0.00%     67.59% # Type of FU issued
system.switch_cpus.iq.FU_type_0::SimdSha1Hash            0      0.00%     67.59% # Type of FU issued
system.switch_cpus.iq.FU_type_0::SimdSha1Hash2            0      0.00%     67.59% # Type of FU issued
system.switch_cpus.iq.FU_type_0::SimdSha256Hash            0      0.00%     67.59% # Type of FU issued
system.switch_cpus.iq.FU_type_0::SimdSha256Hash2            0      0.00%     67.59% # Type of FU issued
system.switch_cpus.iq.FU_type_0::SimdShaSigma2            0      0.00%     67.59% # Type of FU issued
system.switch_cpus.iq.FU_type_0::SimdShaSigma3            0      0.00%     67.59% # Type of FU issued
system.switch_cpus.iq.FU_type_0::SimdPredAlu            0      0.00%     67.59% # Type of FU issued
system.switch_cpus.iq.FU_type_0::MemRead     10632460     29.53%     97.12% # Type of FU issued
system.switch_cpus.iq.FU_type_0::MemWrite      1036373      2.88%    100.00% # Type of FU issued
system.switch_cpus.iq.FU_type_0::FloatMemRead            0      0.00%    100.00% # Type of FU issued
system.switch_cpus.iq.FU_type_0::FloatMemWrite            0      0.00%    100.00% # Type of FU issued
system.switch_cpus.iq.FU_type_0::IprAccess            0      0.00%    100.00% # Type of FU issued
system.switch_cpus.iq.FU_type_0::InstPrefetch            0      0.00%    100.00% # Type of FU issued
system.switch_cpus.iq.FU_type_0::total       36005281                       # Type of FU issued
system.switch_cpus.iq.fp_alu_accesses               0                       # Number of floating point alu accesses
system.switch_cpus.iq.fp_inst_queue_reads            0                       # Number of floating instruction queue reads
system.switch_cpus.iq.fp_inst_queue_wakeup_accesses            0                       # Number of floating instruction queue wakeup accesses
system.switch_cpus.iq.fp_inst_queue_writes            0                       # Number of floating instruction queue writes
system.switch_cpus.iq.fu_busy_cnt             1333843                       # FU busy when requested
system.switch_cpus.iq.fu_busy_rate           0.037046                       # FU busy rate (busy events/executed inst)
system.switch_cpus.iq.fu_full::No_OpClass            0      0.00%      0.00% # attempts to use FU when none available
system.switch_cpus.iq.fu_full::IntAlu          294245     22.06%     22.06% # attempts to use FU when none available
system.switch_cpus.iq.fu_full::IntMult              0      0.00%     22.06% # attempts to use FU when none available
system.switch_cpus.iq.fu_full::IntDiv               0      0.00%     22.06% # attempts to use FU when none available
system.switch_cpus.iq.fu_full::FloatAdd             0      0.00%     22.06% # attempts to use FU when none available
system.switch_cpus.iq.fu_full::FloatCmp             0      0.00%     22.06% # attempts to use FU when none available
system.switch_cpus.iq.fu_full::FloatCvt             0      0.00%     22.06% # attempts to use FU when none available
system.switch_cpus.iq.fu_full::FloatMult            0      0.00%     22.06% # attempts to use FU when none available
system.switch_cpus.iq.fu_full::FloatMultAcc            0      0.00%     22.06% # attempts to use FU when none available
system.switch_cpus.iq.fu_full::FloatDiv             0      0.00%     22.06% # attempts to use FU when none available
system.switch_cpus.iq.fu_full::FloatMisc            0      0.00%     22.06% # attempts to use FU when none available
system.switch_cpus.iq.fu_full::FloatSqrt            0      0.00%     22.06% # attempts to use FU when none available
system.switch_cpus.iq.fu_full::SimdAdd              0      0.00%     22.06% # attempts to use FU when none available
system.switch_cpus.iq.fu_full::SimdAddAcc            0      0.00%     22.06% # attempts to use FU when none available
system.switch_cpus.iq.fu_full::SimdAlu              0      0.00%     22.06% # attempts to use FU when none available
system.switch_cpus.iq.fu_full::SimdCmp              0      0.00%     22.06% # attempts to use FU when none available
system.switch_cpus.iq.fu_full::SimdCvt              0      0.00%     22.06% # attempts to use FU when none available
system.switch_cpus.iq.fu_full::SimdMisc             0      0.00%     22.06% # attempts to use FU when none available
system.switch_cpus.iq.fu_full::SimdMult             0      0.00%     22.06% # attempts to use FU when none available
system.switch_cpus.iq.fu_full::SimdMultAcc            0      0.00%     22.06% # attempts to use FU when none available
system.switch_cpus.iq.fu_full::SimdShift            0      0.00%     22.06% # attempts to use FU when none available
system.switch_cpus.iq.fu_full::SimdShiftAcc            0      0.00%     22.06% # attempts to use FU when none available
system.switch_cpus.iq.fu_full::SimdDiv              0      0.00%     22.06% # attempts to use FU when none available
system.switch_cpus.iq.fu_full::SimdSqrt             0      0.00%     22.06% # attempts to use FU when none available
system.switch_cpus.iq.fu_full::SimdFloatAdd            0      0.00%     22.06% # attempts to use FU when none available
system.switch_cpus.iq.fu_full::SimdFloatAlu            0      0.00%     22.06% # attempts to use FU when none available
system.switch_cpus.iq.fu_full::SimdFloatCmp            0      0.00%     22.06% # attempts to use FU when none available
system.switch_cpus.iq.fu_full::SimdFloatCvt            0      0.00%     22.06% # attempts to use FU when none available
system.switch_cpus.iq.fu_full::SimdFloatDiv            0      0.00%     22.06% # attempts to use FU when none available
system.switch_cpus.iq.fu_full::SimdFloatMisc            0      0.00%     22.06% # attempts to use FU when none available
system.switch_cpus.iq.fu_full::SimdFloatMult            0      0.00%     22.06% # attempts to use FU when none available
system.switch_cpus.iq.fu_full::SimdFloatMultAcc            0      0.00%     22.06% # attempts to use FU when none available
system.switch_cpus.iq.fu_full::SimdFloatSqrt            0      0.00%     22.06% # attempts to use FU when none available
system.switch_cpus.iq.fu_full::SimdReduceAdd            0      0.00%     22.06% # attempts to use FU when none available
system.switch_cpus.iq.fu_full::SimdReduceAlu            0      0.00%     22.06% # attempts to use FU when none available
system.switch_cpus.iq.fu_full::SimdReduceCmp            0      0.00%     22.06% # attempts to use FU when none available
system.switch_cpus.iq.fu_full::SimdFloatReduceAdd            0      0.00%     22.06% # attempts to use FU when none available
system.switch_cpus.iq.fu_full::SimdFloatReduceCmp            0      0.00%     22.06% # attempts to use FU when none available
system.switch_cpus.iq.fu_full::SimdAes              0      0.00%     22.06% # attempts to use FU when none available
system.switch_cpus.iq.fu_full::SimdAesMix            0      0.00%     22.06% # attempts to use FU when none available
system.switch_cpus.iq.fu_full::SimdSha1Hash            0      0.00%     22.06% # attempts to use FU when none available
system.switch_cpus.iq.fu_full::SimdSha1Hash2            0      0.00%     22.06% # attempts to use FU when none available
system.switch_cpus.iq.fu_full::SimdSha256Hash            0      0.00%     22.06% # attempts to use FU when none available
system.switch_cpus.iq.fu_full::SimdSha256Hash2            0      0.00%     22.06% # attempts to use FU when none available
system.switch_cpus.iq.fu_full::SimdShaSigma2            0      0.00%     22.06% # attempts to use FU when none available
system.switch_cpus.iq.fu_full::SimdShaSigma3            0      0.00%     22.06% # attempts to use FU when none available
system.switch_cpus.iq.fu_full::SimdPredAlu            0      0.00%     22.06% # attempts to use FU when none available
system.switch_cpus.iq.fu_full::MemRead         997523     74.79%     96.85% # attempts to use FU when none available
system.switch_cpus.iq.fu_full::MemWrite         42075      3.15%    100.00% # attempts to use FU when none available
system.switch_cpus.iq.fu_full::FloatMemRead            0      0.00%    100.00% # attempts to use FU when none available
system.switch_cpus.iq.fu_full::FloatMemWrite            0      0.00%    100.00% # attempts to use FU when none available
system.switch_cpus.iq.fu_full::IprAccess            0      0.00%    100.00% # attempts to use FU when none available
system.switch_cpus.iq.fu_full::InstPrefetch            0      0.00%    100.00% # attempts to use FU when none available
system.switch_cpus.iq.int_alu_accesses       37001715                       # Number of integer alu accesses
system.switch_cpus.iq.int_inst_queue_reads    121613037                       # Number of integer instruction queue reads
system.switch_cpus.iq.int_inst_queue_wakeup_accesses     28620568                       # Number of integer instruction queue wakeup accesses
system.switch_cpus.iq.int_inst_queue_writes     55840841                       # Number of integer instruction queue writes
system.switch_cpus.iq.iqInstsAdded           36540017                       # Number of instructions added to the IQ (excludes non-spec)
system.switch_cpus.iq.iqInstsIssued          36005281                       # Number of instructions issued
system.switch_cpus.iq.iqSquashedInstsExamined     19299950                       # Number of squashed instructions iterated over during squash; mainly for profiling
system.switch_cpus.iq.iqSquashedInstsIssued       411064                       # Number of squashed instructions issued
system.switch_cpus.iq.iqSquashedOperandsExamined     26500703                       # Number of squashed operands that are examined and possibly removed from graph
system.switch_cpus.iq.issued_per_cycle::samples     47857568                       # Number of insts issued each cycle
system.switch_cpus.iq.issued_per_cycle::mean     0.752342                       # Number of insts issued each cycle
system.switch_cpus.iq.issued_per_cycle::stdev     1.686174                       # Number of insts issued each cycle
system.switch_cpus.iq.issued_per_cycle::underflows            0      0.00%      0.00% # Number of insts issued each cycle
system.switch_cpus.iq.issued_per_cycle::0     36846929     76.99%     76.99% # Number of insts issued each cycle
system.switch_cpus.iq.issued_per_cycle::1      3111468      6.50%     83.49% # Number of insts issued each cycle
system.switch_cpus.iq.issued_per_cycle::2      1639899      3.43%     86.92% # Number of insts issued each cycle
system.switch_cpus.iq.issued_per_cycle::3      1503711      3.14%     90.06% # Number of insts issued each cycle
system.switch_cpus.iq.issued_per_cycle::4      1696325      3.54%     93.61% # Number of insts issued each cycle
system.switch_cpus.iq.issued_per_cycle::5      1228343      2.57%     96.17% # Number of insts issued each cycle
system.switch_cpus.iq.issued_per_cycle::6       996915      2.08%     98.26% # Number of insts issued each cycle
system.switch_cpus.iq.issued_per_cycle::7       477447      1.00%     99.26% # Number of insts issued each cycle
system.switch_cpus.iq.issued_per_cycle::8       356531      0.74%    100.00% # Number of insts issued each cycle
system.switch_cpus.iq.issued_per_cycle::overflows            0      0.00%    100.00% # Number of insts issued each cycle
system.switch_cpus.iq.issued_per_cycle::min_value            0                       # Number of insts issued each cycle
system.switch_cpus.iq.issued_per_cycle::max_value            8                       # Number of insts issued each cycle
system.switch_cpus.iq.issued_per_cycle::total     47857568                       # Number of insts issued each cycle
system.switch_cpus.iq.rate                   0.752283                       # Inst issue rate
system.switch_cpus.iq.vec_alu_accesses              0                       # Number of vector alu accesses
system.switch_cpus.iq.vec_inst_queue_reads            0                       # Number of vector instruction queue reads
system.switch_cpus.iq.vec_inst_queue_wakeup_accesses            0                       # Number of vector instruction queue wakeup accesses
system.switch_cpus.iq.vec_inst_queue_writes            0                       # Number of vector instruction queue writes
system.switch_cpus.itb.rdAccesses                   0                       # TLB accesses on read requests
system.switch_cpus.itb.rdMisses                     0                       # TLB misses on read requests
system.switch_cpus.itb.wrAccesses             2464334                       # TLB accesses on write requests
system.switch_cpus.itb.wrMisses                    26                       # TLB misses on write requests
system.switch_cpus.memDep0.conflictingLoads       463628                       # Number of conflicting loads.
system.switch_cpus.memDep0.conflictingStores       500760                       # Number of conflicting stores.
system.switch_cpus.memDep0.insertedLoads      6655036                       # Number of loads inserted to the mem dependence unit.
system.switch_cpus.memDep0.insertedStores      1451335                       # Number of stores inserted to the mem dependence unit.
system.switch_cpus.misc_regfile_reads        20119101                       # number of misc regfile reads
system.switch_cpus.misc_regfile_writes              1                       # number of misc regfile writes
system.switch_cpus.numCycles                 47861380                       # number of cpu cycles simulated
system.switch_cpus.numWorkItemsCompleted            0                       # number of work items this cpu completed
system.switch_cpus.numWorkItemsStarted              0                       # number of work items this cpu started
system.switch_cpus.rename.BlockCycles        29369496                       # Number of cycles rename is blocking
system.switch_cpus.rename.CommittedMaps      21411880                       # Number of HB maps that are committed
system.switch_cpus.rename.IQFullEvents        3901545                       # Number of times rename has blocked due to IQ full
system.switch_cpus.rename.IdleCycles          3051629                       # Number of cycles rename is idle
system.switch_cpus.rename.LQFullEvents        6857138                       # Number of times rename has blocked due to LQ full
system.switch_cpus.rename.ROBFullEvents        215713                       # Number of times rename has blocked due to ROB full
system.switch_cpus.rename.RenameLookups     106381611                       # Number of register rename lookups that rename has made
system.switch_cpus.rename.RenamedInsts       41407820                       # Number of instructions processed by rename
system.switch_cpus.rename.RenamedOperands     50447053                       # Number of destination operands rename has renamed
system.switch_cpus.rename.RunCycles           5277672                       # Number of cycles rename is running
system.switch_cpus.rename.SQFullEvents         100371                       # Number of times rename has blocked due to SQ full
system.switch_cpus.rename.SquashCycles         562529                       # Number of cycles rename is squashing
system.switch_cpus.rename.UnblockCycles       9591800                       # Number of cycles rename is unblocking
system.switch_cpus.rename.UndoneMaps         29035133                       # Number of HB maps that are undone due to squashing
system.switch_cpus.rename.int_rename_lookups     57095420                       # Number of integer rename lookups
system.switch_cpus.rename.serializeStallCycles         4436                       # count of cycles rename stalled for serializing inst
system.switch_cpus.rename.serializingInsts         6804                       # count of serializing insts renamed
system.switch_cpus.rename.skidInsts           7293253                       # count of insts added to the skid buffer
system.switch_cpus.rename.tempSerializingInsts         6770                       # count of temporary serializing insts renamed
system.switch_cpus.rob.rob_reads             80371172                       # The number of ROB reads
system.switch_cpus.rob.rob_writes            76169263                       # The number of ROB writes
system.switch_cpus.timesIdled                      50                       # Number of times that the entire CPU went into an idle state and unscheduled itself
system.tol2bus.snoop_filter.hit_multi_requests            0                       # Number of requests hitting in the snoop filter with multiple (>1) holders of the requested data.
system.tol2bus.snoop_filter.hit_multi_snoops            0                       # Number of snoops hitting in the snoop filter with multiple (>1) holders of the requested data.
system.tol2bus.snoop_filter.hit_single_requests       956186                       # Number of requests hitting in the snoop filter with a single holder of the requested data.
system.tol2bus.snoop_filter.hit_single_snoops          200                       # Number of snoops hitting in the snoop filter with a single holder of the requested data.
system.tol2bus.snoop_filter.tot_requests      1913458                       # Total number of requests made to the snoop filter.
system.tol2bus.snoop_filter.tot_snoops            200                       # Total number of snoops made to the snoop filter.
system.membus.pwrStateResidencyTicks::UNDEFINED 164628557344500                       # Cumulative time (in ticks) in various power states
system.membus.trans_dist::ReadResp             485789                       # Transaction distribution
system.membus.trans_dist::WritebackDirty        75776                       # Transaction distribution
system.membus.trans_dist::CleanEvict           407614                       # Transaction distribution
system.membus.trans_dist::ReadExReq              5855                       # Transaction distribution
system.membus.trans_dist::ReadExResp             5855                       # Transaction distribution
system.membus.trans_dist::ReadSharedReq        485789                       # Transaction distribution
system.membus.pkt_count_system.l2.mem_side::system.mem_ctrls.port      1466678                       # Packet count per connected master and slave (bytes)
system.membus.pkt_count_system.l2.mem_side::total      1466678                       # Packet count per connected master and slave (bytes)
system.membus.pkt_count::total                1466678                       # Packet count per connected master and slave (bytes)
system.membus.pkt_size_system.l2.mem_side::system.mem_ctrls.port     36314880                       # Cumulative packet size per connected master and slave (bytes)
system.membus.pkt_size_system.l2.mem_side::total     36314880                       # Cumulative packet size per connected master and slave (bytes)
system.membus.pkt_size::total                36314880                       # Cumulative packet size per connected master and slave (bytes)
system.membus.snoops                                0                       # Total snoops (count)
system.membus.snoopTraffic                          0                       # Total snoop traffic (bytes)
system.membus.snoop_fanout::samples            491644                       # Request fanout histogram
system.membus.snoop_fanout::mean                    0                       # Request fanout histogram
system.membus.snoop_fanout::stdev                   0                       # Request fanout histogram
system.membus.snoop_fanout::underflows              0      0.00%      0.00% # Request fanout histogram
system.membus.snoop_fanout::0                  491644    100.00%    100.00% # Request fanout histogram
system.membus.snoop_fanout::1                       0      0.00%    100.00% # Request fanout histogram
system.membus.snoop_fanout::overflows               0      0.00%    100.00% # Request fanout histogram
system.membus.snoop_fanout::min_value               0                       # Request fanout histogram
system.membus.snoop_fanout::max_value               0                       # Request fanout histogram
system.membus.snoop_fanout::total              491644                       # Request fanout histogram
system.membus.reqLayer2.occupancy          1383344000                       # Layer occupancy (ticks)
system.membus.reqLayer2.utilization               5.8                       # Layer utilization (%)
system.membus.respLayer1.occupancy         2727160500                       # Layer occupancy (ticks)
system.membus.respLayer1.utilization             11.4                       # Layer utilization (%)
system.switch_cpus.pwrStateResidencyTicks::OFF  23930700750                       # Cumulative time (in ticks) in various power states
system.switch_cpus.dtb.walker.pwrStateResidencyTicks::UNDEFINED 164628557344500                       # Cumulative time (in ticks) in various power states
system.switch_cpus.itb.walker.pwrStateResidencyTicks::UNDEFINED 164628557344500                       # Cumulative time (in ticks) in various power states
system.tol2bus.pwrStateResidencyTicks::UNDEFINED 164628557344500                       # Cumulative time (in ticks) in various power states
system.tol2bus.trans_dist::ReadResp            936430                       # Transaction distribution
system.tol2bus.trans_dist::WritebackDirty       317475                       # Transaction distribution
system.tol2bus.trans_dist::CleanEvict         1122266                       # Transaction distribution
system.tol2bus.trans_dist::ReadExReq            20842                       # Transaction distribution
system.tol2bus.trans_dist::ReadExResp           20842                       # Transaction distribution
system.tol2bus.trans_dist::ReadCleanReq            62                       # Transaction distribution
system.tol2bus.trans_dist::ReadSharedReq       936368                       # Transaction distribution
system.tol2bus.pkt_count_system.cpu.icache.mem_side::system.l2.cpu_side          124                       # Packet count per connected master and slave (bytes)
system.tol2bus.pkt_count_system.cpu.dcache.mem_side::system.l2.cpu_side      2870606                       # Packet count per connected master and slave (bytes)
system.tol2bus.pkt_count::total               2870730                       # Packet count per connected master and slave (bytes)
system.tol2bus.pkt_size_system.cpu.icache.mem_side::system.l2.cpu_side         3968                       # Cumulative packet size per connected master and slave (bytes)
system.tol2bus.pkt_size_system.cpu.dcache.mem_side::system.l2.cpu_side     76730176                       # Cumulative packet size per connected master and slave (bytes)
system.tol2bus.pkt_size::total               76734144                       # Cumulative packet size per connected master and slave (bytes)
system.tol2bus.snoops                          483555                       # Total snoops (count)
system.tol2bus.snoopTraffic                   4849664                       # Total snoop traffic (bytes)
system.tol2bus.snoop_fanout::samples          1440827                       # Request fanout histogram
system.tol2bus.snoop_fanout::mean            0.000139                       # Request fanout histogram
system.tol2bus.snoop_fanout::stdev           0.011781                       # Request fanout histogram
system.tol2bus.snoop_fanout::underflows             0      0.00%      0.00% # Request fanout histogram
system.tol2bus.snoop_fanout::0                1440627     99.99%     99.99% # Request fanout histogram
system.tol2bus.snoop_fanout::1                    200      0.01%    100.00% # Request fanout histogram
system.tol2bus.snoop_fanout::2                      0      0.00%    100.00% # Request fanout histogram
system.tol2bus.snoop_fanout::3                      0      0.00%    100.00% # Request fanout histogram
system.tol2bus.snoop_fanout::4                      0      0.00%    100.00% # Request fanout histogram
system.tol2bus.snoop_fanout::overflows              0      0.00%    100.00% # Request fanout histogram
system.tol2bus.snoop_fanout::min_value              0                       # Request fanout histogram
system.tol2bus.snoop_fanout::max_value              1                       # Request fanout histogram
system.tol2bus.snoop_fanout::total            1440827                       # Request fanout histogram
system.tol2bus.reqLayer0.occupancy         1198425000                       # Layer occupancy (ticks)
system.tol2bus.reqLayer0.utilization              5.0                       # Layer utilization (%)
system.tol2bus.respLayer1.occupancy        1435807500                       # Layer occupancy (ticks)
system.tol2bus.respLayer1.utilization             6.0                       # Layer utilization (%)
system.tol2bus.respLayer0.occupancy             91999                       # Layer occupancy (ticks)
system.tol2bus.respLayer0.utilization             0.0                       # Layer utilization (%)
system.voltage_domain.voltage                       1                       # Voltage in Volts
system.clk_domain.clock                          1000                       # Clock period in ticks
system.l2.pwrStateResidencyTicks::UNDEFINED 164628557344500                       # Cumulative time (in ticks) in various power states
system.l2.demand_hits::.switch_cpus.data       465628                       # number of demand (read+write) hits
system.l2.demand_hits::total                   465628                       # number of demand (read+write) hits
system.l2.overall_hits::.switch_cpus.data       465628                       # number of overall hits
system.l2.overall_hits::total                  465628                       # number of overall hits
system.l2.demand_misses::.cpu.inst                  1                       # number of demand (read+write) misses
system.l2.demand_misses::.cpu.data                  5                       # number of demand (read+write) misses
system.l2.demand_misses::.switch_cpus.inst           61                       # number of demand (read+write) misses
system.l2.demand_misses::.switch_cpus.data       491577                       # number of demand (read+write) misses
system.l2.demand_misses::total                 491644                       # number of demand (read+write) misses
system.l2.overall_misses::.cpu.inst                 1                       # number of overall misses
system.l2.overall_misses::.cpu.data                 5                       # number of overall misses
system.l2.overall_misses::.switch_cpus.inst           61                       # number of overall misses
system.l2.overall_misses::.switch_cpus.data       491577                       # number of overall misses
system.l2.overall_misses::total                491644                       # number of overall misses
system.l2.demand_miss_latency::.switch_cpus.inst      5026000                       # number of demand (read+write) miss cycles
system.l2.demand_miss_latency::.switch_cpus.data  49435802000                       # number of demand (read+write) miss cycles
system.l2.demand_miss_latency::total      49440828000                       # number of demand (read+write) miss cycles
system.l2.overall_miss_latency::.switch_cpus.inst      5026000                       # number of overall miss cycles
system.l2.overall_miss_latency::.switch_cpus.data  49435802000                       # number of overall miss cycles
system.l2.overall_miss_latency::total     49440828000                       # number of overall miss cycles
system.l2.demand_accesses::.cpu.inst                1                       # number of demand (read+write) accesses
system.l2.demand_accesses::.cpu.data                5                       # number of demand (read+write) accesses
system.l2.demand_accesses::.switch_cpus.inst           61                       # number of demand (read+write) accesses
system.l2.demand_accesses::.switch_cpus.data       957205                       # number of demand (read+write) accesses
system.l2.demand_accesses::total               957272                       # number of demand (read+write) accesses
system.l2.overall_accesses::.cpu.inst               1                       # number of overall (read+write) accesses
system.l2.overall_accesses::.cpu.data               5                       # number of overall (read+write) accesses
system.l2.overall_accesses::.switch_cpus.inst           61                       # number of overall (read+write) accesses
system.l2.overall_accesses::.switch_cpus.data       957205                       # number of overall (read+write) accesses
system.l2.overall_accesses::total              957272                       # number of overall (read+write) accesses
system.l2.demand_miss_rate::.cpu.inst               1                       # miss rate for demand accesses
system.l2.demand_miss_rate::.cpu.data               1                       # miss rate for demand accesses
system.l2.demand_miss_rate::.switch_cpus.inst            1                       # miss rate for demand accesses
system.l2.demand_miss_rate::.switch_cpus.data     0.513555                       # miss rate for demand accesses
system.l2.demand_miss_rate::total            0.513589                       # miss rate for demand accesses
system.l2.overall_miss_rate::.cpu.inst              1                       # miss rate for overall accesses
system.l2.overall_miss_rate::.cpu.data              1                       # miss rate for overall accesses
system.l2.overall_miss_rate::.switch_cpus.inst            1                       # miss rate for overall accesses
system.l2.overall_miss_rate::.switch_cpus.data     0.513555                       # miss rate for overall accesses
system.l2.overall_miss_rate::total           0.513589                       # miss rate for overall accesses
system.l2.demand_avg_miss_latency::.switch_cpus.inst 82393.442623                       # average overall miss latency
system.l2.demand_avg_miss_latency::.switch_cpus.data 100565.734361                       # average overall miss latency
system.l2.demand_avg_miss_latency::total 100562.252361                       # average overall miss latency
system.l2.overall_avg_miss_latency::.switch_cpus.inst 82393.442623                       # average overall miss latency
system.l2.overall_avg_miss_latency::.switch_cpus.data 100565.734361                       # average overall miss latency
system.l2.overall_avg_miss_latency::total 100562.252361                       # average overall miss latency
system.l2.blocked_cycles::no_mshrs                  0                       # number of cycles access was blocked
system.l2.blocked_cycles::no_targets                0                       # number of cycles access was blocked
system.l2.blocked::no_mshrs                         0                       # number of cycles access was blocked
system.l2.blocked::no_targets                       0                       # number of cycles access was blocked
system.l2.avg_blocked_cycles::no_mshrs            nan                       # average number of cycles each access was blocked
system.l2.avg_blocked_cycles::no_targets          nan                       # average number of cycles each access was blocked
system.l2.writebacks::.writebacks               75776                       # number of writebacks
system.l2.writebacks::total                     75776                       # number of writebacks
system.l2.demand_mshr_misses::.switch_cpus.inst           61                       # number of demand (read+write) MSHR misses
system.l2.demand_mshr_misses::.switch_cpus.data       491577                       # number of demand (read+write) MSHR misses
system.l2.demand_mshr_misses::total            491638                       # number of demand (read+write) MSHR misses
system.l2.overall_mshr_misses::.switch_cpus.inst           61                       # number of overall MSHR misses
system.l2.overall_mshr_misses::.switch_cpus.data       491577                       # number of overall MSHR misses
system.l2.overall_mshr_misses::total           491638                       # number of overall MSHR misses
system.l2.demand_mshr_miss_latency::.switch_cpus.inst      4416000                       # number of demand (read+write) MSHR miss cycles
system.l2.demand_mshr_miss_latency::.switch_cpus.data  44520032000                       # number of demand (read+write) MSHR miss cycles
system.l2.demand_mshr_miss_latency::total  44524448000                       # number of demand (read+write) MSHR miss cycles
system.l2.overall_mshr_miss_latency::.switch_cpus.inst      4416000                       # number of overall MSHR miss cycles
system.l2.overall_mshr_miss_latency::.switch_cpus.data  44520032000                       # number of overall MSHR miss cycles
system.l2.overall_mshr_miss_latency::total  44524448000                       # number of overall MSHR miss cycles
system.l2.demand_mshr_miss_rate::.switch_cpus.inst            1                       # mshr miss rate for demand accesses
system.l2.demand_mshr_miss_rate::.switch_cpus.data     0.513555                       # mshr miss rate for demand accesses
system.l2.demand_mshr_miss_rate::total       0.513582                       # mshr miss rate for demand accesses
system.l2.overall_mshr_miss_rate::.switch_cpus.inst            1                       # mshr miss rate for overall accesses
system.l2.overall_mshr_miss_rate::.switch_cpus.data     0.513555                       # mshr miss rate for overall accesses
system.l2.overall_mshr_miss_rate::total      0.513582                       # mshr miss rate for overall accesses
system.l2.demand_avg_mshr_miss_latency::.switch_cpus.inst 72393.442623                       # average overall mshr miss latency
system.l2.demand_avg_mshr_miss_latency::.switch_cpus.data 90565.734361                       # average overall mshr miss latency
system.l2.demand_avg_mshr_miss_latency::total 90563.479633                       # average overall mshr miss latency
system.l2.overall_avg_mshr_miss_latency::.switch_cpus.inst 72393.442623                       # average overall mshr miss latency
system.l2.overall_avg_mshr_miss_latency::.switch_cpus.data 90565.734361                       # average overall mshr miss latency
system.l2.overall_avg_mshr_miss_latency::total 90563.479633                       # average overall mshr miss latency
system.l2.replacements                         483555                       # number of replacements
system.l2.WritebackDirty_hits::.writebacks       241699                       # number of WritebackDirty hits
system.l2.WritebackDirty_hits::total           241699                       # number of WritebackDirty hits
system.l2.WritebackDirty_accesses::.writebacks       241699                       # number of WritebackDirty accesses(hits+misses)
system.l2.WritebackDirty_accesses::total       241699                       # number of WritebackDirty accesses(hits+misses)
system.l2.CleanEvict_mshr_misses::.writebacks           35                       # number of CleanEvict MSHR misses
system.l2.CleanEvict_mshr_misses::total            35                       # number of CleanEvict MSHR misses
system.l2.CleanEvict_mshr_miss_rate::.writebacks          inf                       # mshr miss rate for CleanEvict accesses
system.l2.CleanEvict_mshr_miss_rate::total          inf                       # mshr miss rate for CleanEvict accesses
system.l2.ReadExReq_hits::.switch_cpus.data        14987                       # number of ReadExReq hits
system.l2.ReadExReq_hits::total                 14987                       # number of ReadExReq hits
system.l2.ReadExReq_misses::.switch_cpus.data         5855                       # number of ReadExReq misses
system.l2.ReadExReq_misses::total                5855                       # number of ReadExReq misses
system.l2.ReadExReq_miss_latency::.switch_cpus.data    497253500                       # number of ReadExReq miss cycles
system.l2.ReadExReq_miss_latency::total     497253500                       # number of ReadExReq miss cycles
system.l2.ReadExReq_accesses::.switch_cpus.data        20842                       # number of ReadExReq accesses(hits+misses)
system.l2.ReadExReq_accesses::total             20842                       # number of ReadExReq accesses(hits+misses)
system.l2.ReadExReq_miss_rate::.switch_cpus.data     0.280923                       # miss rate for ReadExReq accesses
system.l2.ReadExReq_miss_rate::total         0.280923                       # miss rate for ReadExReq accesses
system.l2.ReadExReq_avg_miss_latency::.switch_cpus.data 84928.010248                       # average ReadExReq miss latency
system.l2.ReadExReq_avg_miss_latency::total 84928.010248                       # average ReadExReq miss latency
system.l2.ReadExReq_mshr_misses::.switch_cpus.data         5855                       # number of ReadExReq MSHR misses
system.l2.ReadExReq_mshr_misses::total           5855                       # number of ReadExReq MSHR misses
system.l2.ReadExReq_mshr_miss_latency::.switch_cpus.data    438703500                       # number of ReadExReq MSHR miss cycles
system.l2.ReadExReq_mshr_miss_latency::total    438703500                       # number of ReadExReq MSHR miss cycles
system.l2.ReadExReq_mshr_miss_rate::.switch_cpus.data     0.280923                       # mshr miss rate for ReadExReq accesses
system.l2.ReadExReq_mshr_miss_rate::total     0.280923                       # mshr miss rate for ReadExReq accesses
system.l2.ReadExReq_avg_mshr_miss_latency::.switch_cpus.data 74928.010248                       # average ReadExReq mshr miss latency
system.l2.ReadExReq_avg_mshr_miss_latency::total 74928.010248                       # average ReadExReq mshr miss latency
system.l2.ReadCleanReq_misses::.cpu.inst            1                       # number of ReadCleanReq misses
system.l2.ReadCleanReq_misses::.switch_cpus.inst           61                       # number of ReadCleanReq misses
system.l2.ReadCleanReq_misses::total               62                       # number of ReadCleanReq misses
system.l2.ReadCleanReq_miss_latency::.switch_cpus.inst      5026000                       # number of ReadCleanReq miss cycles
system.l2.ReadCleanReq_miss_latency::total      5026000                       # number of ReadCleanReq miss cycles
system.l2.ReadCleanReq_accesses::.cpu.inst            1                       # number of ReadCleanReq accesses(hits+misses)
system.l2.ReadCleanReq_accesses::.switch_cpus.inst           61                       # number of ReadCleanReq accesses(hits+misses)
system.l2.ReadCleanReq_accesses::total             62                       # number of ReadCleanReq accesses(hits+misses)
system.l2.ReadCleanReq_miss_rate::.cpu.inst            1                       # miss rate for ReadCleanReq accesses
system.l2.ReadCleanReq_miss_rate::.switch_cpus.inst            1                       # miss rate for ReadCleanReq accesses
system.l2.ReadCleanReq_miss_rate::total             1                       # miss rate for ReadCleanReq accesses
system.l2.ReadCleanReq_avg_miss_latency::.switch_cpus.inst 82393.442623                       # average ReadCleanReq miss latency
system.l2.ReadCleanReq_avg_miss_latency::total 81064.516129                       # average ReadCleanReq miss latency
system.l2.ReadCleanReq_mshr_misses::.switch_cpus.inst           61                       # number of ReadCleanReq MSHR misses
system.l2.ReadCleanReq_mshr_misses::total           61                       # number of ReadCleanReq MSHR misses
system.l2.ReadCleanReq_mshr_miss_latency::.switch_cpus.inst      4416000                       # number of ReadCleanReq MSHR miss cycles
system.l2.ReadCleanReq_mshr_miss_latency::total      4416000                       # number of ReadCleanReq MSHR miss cycles
system.l2.ReadCleanReq_mshr_miss_rate::.switch_cpus.inst            1                       # mshr miss rate for ReadCleanReq accesses
system.l2.ReadCleanReq_mshr_miss_rate::total     0.983871                       # mshr miss rate for ReadCleanReq accesses
system.l2.ReadCleanReq_avg_mshr_miss_latency::.switch_cpus.inst 72393.442623                       # average ReadCleanReq mshr miss latency
system.l2.ReadCleanReq_avg_mshr_miss_latency::total 72393.442623                       # average ReadCleanReq mshr miss latency
system.l2.ReadSharedReq_hits::.switch_cpus.data       450641                       # number of ReadSharedReq hits
system.l2.ReadSharedReq_hits::total            450641                       # number of ReadSharedReq hits
system.l2.ReadSharedReq_misses::.cpu.data            5                       # number of ReadSharedReq misses
[...]
system.cpu.dtb.walker.pwrStateResidencyTicks::UNDEFINED 164700942916500                       # Cumulative time (in ticks) in various power states
system.cpu.interrupts.clk_domain.clock           8000                       # Clock period in ticks
system.cpu.itb_walker_cache.pwrStateResidencyTicks::UNDEFINED 164700942916500                       # Cumulative time (in ticks) in various power states
system.cpu.itb_walker_cache.blocked_cycles::no_mshrs            0                       # number of cycles access was blocked
system.cpu.itb_walker_cache.blocked_cycles::no_targets            0                       # number of cycles access was blocked
system.cpu.itb_walker_cache.blocked::no_mshrs            0                       # number of cycles access was blocked
system.cpu.itb_walker_cache.blocked::no_targets            0                       # number of cycles access was blocked
system.cpu.itb_walker_cache.avg_blocked_cycles::no_mshrs          nan                       # average number of cycles each access was blocked
system.cpu.itb_walker_cache.avg_blocked_cycles::no_targets          nan                       # average number of cycles each access was blocked
system.cpu.itb_walker_cache.replacements            0                       # number of replacements
system.cpu.itb_walker_cache.tags.pwrStateResidencyTicks::UNDEFINED 164700942916500                       # Cumulative time (in ticks) in various power states
system.cpu.itb_walker_cache.tags.tagsinuse            0                       # Cycle average of tags in use
system.cpu.itb_walker_cache.tags.total_refs            0                       # Total number of references to valid blocks.
system.cpu.itb_walker_cache.tags.sampled_refs            0                       # Sample count of references to valid blocks.
system.cpu.itb_walker_cache.tags.avg_refs          nan                       # Average number of references to valid blocks.
system.cpu.itb_walker_cache.tags.warmup_cycle            0                       # Cycle when the warmup percentage was hit.
system.cpu.itb_walker_cache.tags.tag_accesses            0                       # Number of tag accesses
system.cpu.itb_walker_cache.tags.data_accesses            0                       # Number of data accesses
system.cpu.itb.walker.pwrStateResidencyTicks::UNDEFINED 164700942916500                       # Cumulative time (in ticks) in various power states
system.cpu.dtb_walker_cache.pwrStateResidencyTicks::UNDEFINED 164700942916500                       # Cumulative time (in ticks) in various power states
system.cpu.dtb_walker_cache.blocked_cycles::no_mshrs            0                       # number of cycles access was blocked
system.cpu.dtb_walker_cache.blocked_cycles::no_targets            0                       # number of cycles access was blocked
system.cpu.dtb_walker_cache.blocked::no_mshrs            0                       # number of cycles access was blocked
system.cpu.dtb_walker_cache.blocked::no_targets            0                       # number of cycles access was blocked
system.cpu.dtb_walker_cache.avg_blocked_cycles::no_mshrs          nan                       # average number of cycles each access was blocked
system.cpu.dtb_walker_cache.avg_blocked_cycles::no_targets          nan                       # average number of cycles each access was blocked
system.cpu.dtb_walker_cache.replacements            0                       # number of replacements
system.cpu.dtb_walker_cache.tags.pwrStateResidencyTicks::UNDEFINED 164700942916500                       # Cumulative time (in ticks) in various power states
system.cpu.dtb_walker_cache.tags.tagsinuse            0                       # Cycle average of tags in use
system.cpu.dtb_walker_cache.tags.total_refs            0                       # Total number of references to valid blocks.
system.cpu.dtb_walker_cache.tags.sampled_refs            0                       # Sample count of references to valid blocks.
system.cpu.dtb_walker_cache.tags.avg_refs          nan                       # Average number of references to valid blocks.
system.cpu.dtb_walker_cache.tags.warmup_cycle            0                       # Cycle when the warmup percentage was hit.
system.cpu.dtb_walker_cache.tags.tag_accesses            0                       # Number of tag accesses
system.cpu.dtb_walker_cache.tags.data_accesses            0                       # Number of data accesses
system.cpu.dcache.pwrStateResidencyTicks::UNDEFINED 164700942916500                       # Cumulative time (in ticks) in various power states
system.cpu.dcache.demand_hits::.cpu.data            2                       # number of demand (read+write) hits
system.cpu.dcache.demand_hits::.switch_cpus.data     14190792                       # number of demand (read+write) hits
system.cpu.dcache.demand_hits::total         14190794                       # number of demand (read+write) hits
system.cpu.dcache.overall_hits::.cpu.data            2                       # number of overall hits
system.cpu.dcache.overall_hits::.switch_cpus.data     14190792                       # number of overall hits
system.cpu.dcache.overall_hits::total        14190794                       # number of overall hits
system.cpu.dcache.demand_misses::.cpu.data            5                       # number of demand (read+write) misses
system.cpu.dcache.demand_misses::.switch_cpus.data      8175828                       # number of demand (read+write) misses
system.cpu.dcache.demand_misses::total        8175833                       # number of demand (read+write) misses
system.cpu.dcache.overall_misses::.cpu.data            5                       # number of overall misses
system.cpu.dcache.overall_misses::.switch_cpus.data      8175828                       # number of overall misses
system.cpu.dcache.overall_misses::total       8175833                       # number of overall misses
system.cpu.dcache.demand_miss_latency::.switch_cpus.data 487504938933                       # number of demand (read+write) miss cycles
system.cpu.dcache.demand_miss_latency::total 487504938933                       # number of demand (read+write) miss cycles
system.cpu.dcache.overall_miss_latency::.switch_cpus.data 487504938933                       # number of overall miss cycles
system.cpu.dcache.overall_miss_latency::total 487504938933                       # number of overall miss cycles
system.cpu.dcache.demand_accesses::.cpu.data            7                       # number of demand (read+write) accesses
system.cpu.dcache.demand_accesses::.switch_cpus.data     22366620                       # number of demand (read+write) accesses
system.cpu.dcache.demand_accesses::total     22366627                       # number of demand (read+write) accesses
system.cpu.dcache.overall_accesses::.cpu.data            7                       # number of overall (read+write) accesses
system.cpu.dcache.overall_accesses::.switch_cpus.data     22366620                       # number of overall (read+write) accesses
system.cpu.dcache.overall_accesses::total     22366627                       # number of overall (read+write) accesses
system.cpu.dcache.demand_miss_rate::.cpu.data     0.714286                       # miss rate for demand accesses
system.cpu.dcache.demand_miss_rate::.switch_cpus.data     0.365537                       # miss rate for demand accesses
system.cpu.dcache.demand_miss_rate::total     0.365537                       # miss rate for demand accesses
system.cpu.dcache.overall_miss_rate::.cpu.data     0.714286                       # miss rate for overall accesses
system.cpu.dcache.overall_miss_rate::.switch_cpus.data     0.365537                       # miss rate for overall accesses
system.cpu.dcache.overall_miss_rate::total     0.365537                       # miss rate for overall accesses
system.cpu.dcache.demand_avg_miss_latency::.switch_cpus.data 59627.592329                       # average overall miss latency
system.cpu.dcache.demand_avg_miss_latency::total 59627.555863                       # average overall miss latency
system.cpu.dcache.overall_avg_miss_latency::.switch_cpus.data 59627.592329                       # average overall miss latency
system.cpu.dcache.overall_avg_miss_latency::total 59627.555863                       # average overall miss latency
system.cpu.dcache.blocked_cycles::no_mshrs     66389043                       # number of cycles access was blocked
system.cpu.dcache.blocked_cycles::no_targets         3205                       # number of cycles access was blocked
system.cpu.dcache.blocked::no_mshrs           2239908                       # number of cycles access was blocked
system.cpu.dcache.blocked::no_targets              60                       # number of cycles access was blocked
system.cpu.dcache.avg_blocked_cycles::no_mshrs    29.639183                       # average number of cycles each access was blocked
system.cpu.dcache.avg_blocked_cycles::no_targets    53.416667                       # average number of cycles each access was blocked
system.cpu.dcache.writebacks::.writebacks       977833                       # number of writebacks
system.cpu.dcache.writebacks::total            977833                       # number of writebacks
system.cpu.dcache.demand_mshr_hits::.switch_cpus.data      4415891                       # number of demand (read+write) MSHR hits
system.cpu.dcache.demand_mshr_hits::total      4415891                       # number of demand (read+write) MSHR hits
system.cpu.dcache.overall_mshr_hits::.switch_cpus.data      4415891                       # number of overall MSHR hits
system.cpu.dcache.overall_mshr_hits::total      4415891                       # number of overall MSHR hits
system.cpu.dcache.demand_mshr_misses::.switch_cpus.data      3759937                       # number of demand (read+write) MSHR misses
system.cpu.dcache.demand_mshr_misses::total      3759937                       # number of demand (read+write) MSHR misses
system.cpu.dcache.overall_mshr_misses::.switch_cpus.data      3759937                       # number of overall MSHR misses
system.cpu.dcache.overall_mshr_misses::total      3759937                       # number of overall MSHR misses
system.cpu.dcache.demand_mshr_miss_latency::.switch_cpus.data 219677564144                       # number of demand (read+write) MSHR miss cycles
system.cpu.dcache.demand_mshr_miss_latency::total 219677564144                       # number of demand (read+write) MSHR miss cycles
system.cpu.dcache.overall_mshr_miss_latency::.switch_cpus.data 219677564144                       # number of overall MSHR miss cycles
system.cpu.dcache.overall_mshr_miss_latency::total 219677564144                       # number of overall MSHR miss cycles
system.cpu.dcache.demand_mshr_miss_rate::.switch_cpus.data     0.168105                       # mshr miss rate for demand accesses
system.cpu.dcache.demand_mshr_miss_rate::total     0.168105                       # mshr miss rate for demand accesses
system.cpu.dcache.overall_mshr_miss_rate::.switch_cpus.data     0.168105                       # mshr miss rate for overall accesses
system.cpu.dcache.overall_mshr_miss_rate::total     0.168105                       # mshr miss rate for overall accesses
system.cpu.dcache.demand_avg_mshr_miss_latency::.switch_cpus.data 58425.863025                       # average overall mshr miss latency
system.cpu.dcache.demand_avg_mshr_miss_latency::total 58425.863025                       # average overall mshr miss latency
system.cpu.dcache.overall_avg_mshr_miss_latency::.switch_cpus.data 58425.863025                       # average overall mshr miss latency
system.cpu.dcache.overall_avg_mshr_miss_latency::total 58425.863025                       # average overall mshr miss latency
system.cpu.dcache.replacements                3758918                       # number of replacements
system.cpu.dcache.ReadReq_hits::.switch_cpus.data     11715110                       # number of ReadReq hits
system.cpu.dcache.ReadReq_hits::total        11715110                       # number of ReadReq hits
system.cpu.dcache.ReadReq_misses::.cpu.data            5                       # number of ReadReq misses
system.cpu.dcache.ReadReq_misses::.switch_cpus.data      8085237                       # number of ReadReq misses
system.cpu.dcache.ReadReq_misses::total       8085242                       # number of ReadReq misses
system.cpu.dcache.ReadReq_miss_latency::.switch_cpus.data 484574175500                       # number of ReadReq miss cycles
system.cpu.dcache.ReadReq_miss_latency::total 484574175500                       # number of ReadReq miss cycles
system.cpu.dcache.ReadReq_accesses::.cpu.data            5                       # number of ReadReq accesses(hits+misses)
system.cpu.dcache.ReadReq_accesses::.switch_cpus.data     19800347                       # number of ReadReq accesses(hits+misses)
system.cpu.dcache.ReadReq_accesses::total     19800352                       # number of ReadReq accesses(hits+misses)
system.cpu.dcache.ReadReq_miss_rate::.cpu.data            1                       # miss rate for ReadReq accesses
system.cpu.dcache.ReadReq_miss_rate::.switch_cpus.data     0.408338                       # miss rate for ReadReq accesses
system.cpu.dcache.ReadReq_miss_rate::total     0.408338                       # miss rate for ReadReq accesses
system.cpu.dcache.ReadReq_avg_miss_latency::.switch_cpus.data 59933.206101                       # average ReadReq miss latency
system.cpu.dcache.ReadReq_avg_miss_latency::total 59933.169038                       # average ReadReq miss latency
system.cpu.dcache.ReadReq_mshr_hits::.switch_cpus.data      4414155                       # number of ReadReq MSHR hits
system.cpu.dcache.ReadReq_mshr_hits::total      4414155                       # number of ReadReq MSHR hits
system.cpu.dcache.ReadReq_mshr_misses::.switch_cpus.data      3671082                       # number of ReadReq MSHR misses
system.cpu.dcache.ReadReq_mshr_misses::total      3671082                       # number of ReadReq MSHR misses
system.cpu.dcache.ReadReq_mshr_miss_latency::.switch_cpus.data 216861128000                       # number of ReadReq MSHR miss cycles
system.cpu.dcache.ReadReq_mshr_miss_latency::total 216861128000                       # number of ReadReq MSHR miss cycles
system.cpu.dcache.ReadReq_mshr_miss_rate::.switch_cpus.data     0.185405                       # mshr miss rate for ReadReq accesses
system.cpu.dcache.ReadReq_mshr_miss_rate::total     0.185405                       # mshr miss rate for ReadReq accesses
system.cpu.dcache.ReadReq_avg_mshr_miss_latency::.switch_cpus.data 59072.809597                       # average ReadReq mshr miss latency
system.cpu.dcache.ReadReq_avg_mshr_miss_latency::total 59072.809597                       # average ReadReq mshr miss latency
system.cpu.dcache.WriteReq_hits::.cpu.data            2                       # number of WriteReq hits
system.cpu.dcache.WriteReq_hits::.switch_cpus.data      2475682                       # number of WriteReq hits
system.cpu.dcache.WriteReq_hits::total        2475684                       # number of WriteReq hits
system.cpu.dcache.WriteReq_misses::.switch_cpus.data        90591                       # number of WriteReq misses
system.cpu.dcache.WriteReq_misses::total        90591                       # number of WriteReq misses
system.cpu.dcache.WriteReq_miss_latency::.switch_cpus.data   2930763433                       # number of WriteReq miss cycles
system.cpu.dcache.WriteReq_miss_latency::total   2930763433                       # number of WriteReq miss cycles
system.cpu.dcache.WriteReq_accesses::.cpu.data            2                       # number of WriteReq accesses(hits+misses)
system.cpu.dcache.WriteReq_accesses::.switch_cpus.data      2566273                       # number of WriteReq accesses(hits+misses)
system.cpu.dcache.WriteReq_accesses::total      2566275                       # number of WriteReq accesses(hits+misses)
system.cpu.dcache.WriteReq_miss_rate::.switch_cpus.data     0.035301                       # miss rate for WriteReq accesses
system.cpu.dcache.WriteReq_miss_rate::total     0.035301                       # miss rate for WriteReq accesses
system.cpu.dcache.WriteReq_avg_miss_latency::.switch_cpus.data 32351.595997                       # average WriteReq miss latency
system.cpu.dcache.WriteReq_avg_miss_latency::total 32351.595997                       # average WriteReq miss latency
system.cpu.dcache.WriteReq_mshr_hits::.switch_cpus.data         1736                       # number of WriteReq MSHR hits
system.cpu.dcache.WriteReq_mshr_hits::total         1736                       # number of WriteReq MSHR hits
system.cpu.dcache.WriteReq_mshr_misses::.switch_cpus.data        88855                       # number of WriteReq MSHR misses
system.cpu.dcache.WriteReq_mshr_misses::total        88855                       # number of WriteReq MSHR misses
system.cpu.dcache.WriteReq_mshr_miss_latency::.switch_cpus.data   2816436144                       # number of WriteReq MSHR miss cycles
system.cpu.dcache.WriteReq_mshr_miss_latency::total   2816436144                       # number of WriteReq MSHR miss cycles
system.cpu.dcache.WriteReq_mshr_miss_rate::.switch_cpus.data     0.034624                       # mshr miss rate for WriteReq accesses
system.cpu.dcache.WriteReq_mshr_miss_rate::total     0.034624                       # mshr miss rate for WriteReq accesses
system.cpu.dcache.WriteReq_avg_mshr_miss_latency::.switch_cpus.data 31696.991098                       # average WriteReq mshr miss latency
system.cpu.dcache.WriteReq_avg_mshr_miss_latency::total 31696.991098                       # average WriteReq mshr miss latency
system.cpu.dcache.tags.pwrStateResidencyTicks::UNDEFINED 164700942916500                       # Cumulative time (in ticks) in various power states
system.cpu.dcache.tags.tagsinuse             0.598701                       # Cycle average of tags in use
system.cpu.dcache.tags.total_refs            17950736                       # Total number of references to valid blocks.
system.cpu.dcache.tags.sampled_refs           3759942                       # Sample count of references to valid blocks.
system.cpu.dcache.tags.avg_refs              4.774206                       # Average number of references to valid blocks.
system.cpu.dcache.tags.warmup_cycle      164604626644500                       # Cycle when the warmup percentage was hit.
system.cpu.dcache.tags.occ_blocks::.cpu.data     0.000002                       # Average occupied blocks per requestor
system.cpu.dcache.tags.occ_blocks::.switch_cpus.data     0.598700                       # Average occupied blocks per requestor
system.cpu.dcache.tags.occ_percent::.cpu.data     0.000000                       # Average percentage of cache occupancy
system.cpu.dcache.tags.occ_percent::.switch_cpus.data     0.000585                       # Average percentage of cache occupancy
system.cpu.dcache.tags.occ_percent::total     0.000585                       # Average percentage of cache occupancy
system.cpu.dcache.tags.occ_task_id_blocks::1024         1024                       # Occupied blocks per task id
system.cpu.dcache.tags.age_task_id_blocks_1024::0          173                       # Occupied blocks per task id
system.cpu.dcache.tags.age_task_id_blocks_1024::1          765                       # Occupied blocks per task id
system.cpu.dcache.tags.age_task_id_blocks_1024::2           86                       # Occupied blocks per task id
system.cpu.dcache.tags.occ_task_id_percent::1024            1                       # Percentage of cache occupancy per task id
system.cpu.dcache.tags.tag_accesses          48493196                       # Number of tag accesses
system.cpu.dcache.tags.data_accesses         48493196                       # Number of data accesses

---------- End Simulation Statistics   ----------
