
---------- Begin Simulation Statistics ----------
final_tick                               926051889615500                       # Number of ticks from beginning of simulation (restored from checkpoints and never reset)
host_inst_rate                                  27026                       # Simulator instruction rate (inst/s)
host_mem_usage                                 829324                       # Number of bytes of host memory used
host_op_rate                                    45470                       # Simulator op (including micro ops) rate (op/s)
host_seconds                                   370.02                       # Real time elapsed on the host
host_tick_rate                               33204404                       # Simulator tick rate (ticks/s)
sim_freq                                 1000000000000                       # Frequency of simulated ticks
sim_insts                                    10000009                       # Number of instructions simulated
sim_ops                                      16825012                       # Number of ops (including micro ops) simulated
sim_seconds                                  0.012286                       # Number of seconds simulated
sim_ticks                                 12286333000                       # Number of ticks simulated
system.cpu.Branches                                 3                       # Number of branches fetched
system.cpu.committedInsts                           9                       # Number of instructions committed
system.cpu.committedOps                            18                       # Number of ops (including micro ops) committed
system.cpu.dtb.rdAccesses                           2                       # TLB accesses on read requests
system.cpu.dtb.rdMisses                             0                       # TLB misses on read requests
system.cpu.dtb.wrAccesses                           0                       # TLB accesses on write requests
system.cpu.dtb.wrMisses                             0                       # TLB misses on write requests
system.cpu.idle_fraction                            0                       # Percentage of idle cycles
system.cpu.itb.rdAccesses                           0                       # TLB accesses on read requests
system.cpu.itb.rdMisses                             0                       # TLB misses on read requests
system.cpu.itb.wrAccesses                          11                       # TLB accesses on write requests
system.cpu.itb.wrMisses                             0                       # TLB misses on write requests
system.cpu.not_idle_fraction                        1                       # Percentage of non-idle cycles
system.cpu.numCycles                               20                       # number of cpu cycles simulated
system.cpu.numWorkItemsCompleted                    0                       # number of work items this cpu completed
system.cpu.numWorkItemsStarted                      0                       # number of work items this cpu started
system.cpu.num_busy_cycles                         20                       # Number of busy cycles
system.cpu.num_cc_register_reads                   15                       # number of times the CC registers were read
system.cpu.num_cc_register_writes                   8                       # number of times the CC registers were written
system.cpu.num_conditional_control_insts            3                       # number of instructions that are conditional controls
system.cpu.num_fp_alu_accesses                      0                       # Number of float alu accesses
system.cpu.num_fp_insts                             0                       # number of float instructions
system.cpu.num_fp_register_reads                    0                       # number of times the floating registers were read
system.cpu.num_fp_register_writes                   0                       # number of times the floating registers were written
system.cpu.num_func_calls                           0                       # number of times a function call or return occured
system.cpu.num_idle_cycles                          0                       # Number of idle cycles
system.cpu.num_int_alu_accesses                    18                       # Number of integer alu accesses
system.cpu.num_int_insts                           18                       # number of integer instructions
system.cpu.num_int_register_reads                  29                       # number of times the integer registers were read
system.cpu.num_int_register_writes                 15                       # number of times the integer registers were written
system.cpu.num_load_insts                           2                       # Number of load instructions
system.cpu.num_mem_refs                             2                       # number of memory refs
system.cpu.num_store_insts                          0                       # Number of store instructions
system.cpu.num_vec_alu_accesses                     0                       # Number of vector alu accesses
system.cpu.num_vec_insts                            0                       # number of vector instructions
system.cpu.num_vec_register_reads                   0                       # number of times the vector registers were read
system.cpu.num_vec_register_writes                  0                       # number of times the vector registers were written
system.cpu.op_class::No_OpClass                     0      0.00%      0.00% # Class of executed instruction
system.cpu.op_class::IntAlu                        16     88.89%     88.89% # Class of executed instruction
system.cpu.op_class::IntMult                        0      0.00%     88.89% # Class of executed instruction
system.cpu.op_class::IntDiv                         0      0.00%     88.89% # Class of executed instruction
system.cpu.op_class::FloatAdd                       0      0.00%     88.89% # Class of executed instruction
system.cpu.op_class::FloatCmp                       0      0.00%     88.89% # Class of executed instruction
system.cpu.op_class::FloatCvt                       0      0.00%     88.89% # Class of executed instruction
system.cpu.op_class::FloatMult                      0      0.00%     88.89% # Class of executed instruction
system.cpu.op_class::FloatMultAcc                   0      0.00%     88.89% # Class of executed instruction
system.cpu.op_class::FloatDiv                       0      0.00%     88.89% # Class of executed instruction
system.cpu.op_class::FloatMisc                      0      0.00%     88.89% # Class of executed instruction
system.cpu.op_class::FloatSqrt                      0      0.00%     88.89% # Class of executed instruction
system.cpu.op_class::SimdAdd                        0      0.00%     88.89% # Class of executed instruction
system.cpu.op_class::SimdAddAcc                     0      0.00%     88.89% # Class of executed instruction
system.cpu.op_class::SimdAlu                        0      0.00%     88.89% # Class of executed instruction
system.cpu.op_class::SimdCmp                        0      0.00%     88.89% # Class of executed instruction
system.cpu.op_class::SimdCvt                        0      0.00%     88.89% # Class of executed instruction
system.cpu.op_class::SimdMisc                       0      0.00%     88.89% # Class of executed instruction
system.cpu.op_class::SimdMult                       0      0.00%     88.89% # Class of executed instruction
system.cpu.op_class::SimdMultAcc                    0      0.00%     88.89% # Class of executed instruction
system.cpu.op_class::SimdShift                      0      0.00%     88.89% # Class of executed instruction
system.cpu.op_class::SimdShiftAcc                   0      0.00%     88.89% # Class of executed instruction
system.cpu.op_class::SimdDiv                        0      0.00%     88.89% # Class of executed instruction
system.cpu.op_class::SimdSqrt                       0      0.00%     88.89% # Class of executed instruction
system.cpu.op_class::SimdFloatAdd                   0      0.00%     88.89% # Class of executed instruction
system.cpu.op_class::SimdFloatAlu                   0      0.00%     88.89% # Class of executed instruction
system.cpu.op_class::SimdFloatCmp                   0      0.00%     88.89% # Class of executed instruction
system.cpu.op_class::SimdFloatCvt                   0      0.00%     88.89% # Class of executed instruction
system.cpu.op_class::SimdFloatDiv                   0      0.00%     88.89% # Class of executed instruction
system.cpu.op_class::SimdFloatMisc                  0      0.00%     88.89% # Class of executed instruction
system.cpu.op_class::SimdFloatMult                  0      0.00%     88.89% # Class of executed instruction
system.cpu.op_class::SimdFloatMultAcc               0      0.00%     88.89% # Class of executed instruction
system.cpu.op_class::SimdFloatSqrt                  0      0.00%     88.89% # Class of executed instruction
system.cpu.op_class::SimdReduceAdd                  0      0.00%     88.89% # Class of executed instruction
system.cpu.op_class::SimdReduceAlu                  0      0.00%     88.89% # Class of executed instruction
system.cpu.op_class::SimdReduceCmp                  0      0.00%     88.89% # Class of executed instruction
system.cpu.op_class::SimdFloatReduceAdd             0      0.00%     88.89% # Class of executed instruction
system.cpu.op_class::SimdFloatReduceCmp             0      0.00%     88.89% # Class of executed instruction
system.cpu.op_class::SimdAes                        0      0.00%     88.89% # Class of executed instruction
system.cpu.op_class::SimdAesMix                     0      0.00%     88.89% # Class of executed instruction
system.cpu.op_class::SimdSha1Hash                   0      0.00%     88.89% # Class of executed instruction
system.cpu.op_class::SimdSha1Hash2                  0      0.00%     88.89% # Class of executed instruction
system.cpu.op_class::SimdSha256Hash                 0      0.00%     88.89% # Class of executed instruction
system.cpu.op_class::SimdSha256Hash2                0      0.00%     88.89% # Class of executed instruction
system.cpu.op_class::SimdShaSigma2                  0      0.00%     88.89% # Class of executed instruction
system.cpu.op_class::SimdShaSigma3                  0      0.00%     88.89% # Class of executed instruction
system.cpu.op_class::SimdPredAlu                    0      0.00%     88.89% # Class of executed instruction
system.cpu.op_class::MemRead                        2     11.11%    100.00% # Class of executed instruction
system.cpu.op_class::MemWrite                       0      0.00%    100.00% # Class of executed instruction
system.cpu.op_class::FloatMemRead                   0      0.00%    100.00% # Class of executed instruction
system.cpu.op_class::FloatMemWrite                  0      0.00%    100.00% # Class of executed instruction
system.cpu.op_class::IprAccess                      0      0.00%    100.00% # Class of executed instruction
system.cpu.op_class::InstPrefetch                   0      0.00%    100.00% # Class of executed instruction
system.cpu.op_class::total                         18                       # Class of executed instruction
system.cpu.workload.numSyscalls                     0                       # Number of system calls
system.membus.snoop_filter.hit_multi_requests            0                       # Number of requests hitting in the snoop filter with multiple (>1) holders of the requested data.
system.membus.snoop_filter.hit_multi_snoops            0                       # Number of snoops hitting in the snoop filter with multiple (>1) holders of the requested data.
system.membus.snoop_filter.hit_single_requests       257118                       # Number of requests hitting in the snoop filter with a single holder of the requested data.
system.membus.snoop_filter.hit_single_snoops            0                       # Number of snoops hitting in the snoop filter with a single holder of the requested data.
system.membus.snoop_filter.tot_requests        517035                       # Total number of requests made to the snoop filter.
system.membus.snoop_filter.tot_snoops               0                       # Total number of snoops made to the snoop filter.
system.switch_cpus.branchPred.BTBCorrect            0                       # Number of correct BTB predictions (this stat may not work properly.
system.switch_cpus.branchPred.BTBHitPct      0.000000                       # BTB Hit Percentage
system.switch_cpus.branchPred.BTBHits               0                       # Number of BTB hits
system.switch_cpus.branchPred.BTBLookups      5283200                       # Number of BTB lookups
system.switch_cpus.branchPred.RASInCorrect            0                       # Number of incorrect RAS predictions.
system.switch_cpus.branchPred.condIncorrect       586391                       # Number of conditional branches incorrect
system.switch_cpus.branchPred.condPredicted      6451506                       # Number of conditional branches predicted
system.switch_cpus.branchPred.indirectHits      3030687                       # Number of indirect target hits.
system.switch_cpus.branchPred.indirectLookups      5283200                       # Number of indirect predictor lookups.
system.switch_cpus.branchPred.indirectMisses      2252513                       # Number of indirect misses.
system.switch_cpus.branchPred.lookups         6475647                       # Number of BP lookups
system.switch_cpus.branchPred.usedRAS               4                       # Number of times the RAS was used to get a target.
system.switch_cpus.branchPredindirectMispredicted       276010                       # Number of mispredicted indirect branches.
system.switch_cpus.cc_regfile_reads          16802362                       # number of cc regfile reads
system.switch_cpus.cc_regfile_writes         12630942                       # number of cc regfile writes
system.switch_cpus.commit.amos                      0                       # Number of atomic instructions committed
system.switch_cpus.commit.branchMispredicts       586391                       # The number of times a branch was mispredicted
system.switch_cpus.commit.branches            2315914                       # Number of branches committed
system.switch_cpus.commit.bw_lim_events       1006585                       # number cycles where commit BW limit reached
system.switch_cpus.commit.commitSquashedInsts     21254346                       # The number of squashed insts skipped by commit
system.switch_cpus.commit.committedInsts     10000000                       # Number of instructions committed
system.switch_cpus.commit.committedOps       16824994                       # Number of ops (including micro ops) committed
system.switch_cpus.commit.committed_per_cycle::samples     21324919                       # Number of insts commited each cycle
system.switch_cpus.commit.committed_per_cycle::mean     0.788983                       # Number of insts commited each cycle
system.switch_cpus.commit.committed_per_cycle::stdev     1.983739                       # Number of insts commited each cycle
system.switch_cpus.commit.committed_per_cycle::underflows            0      0.00%      0.00% # Number of insts commited each cycle
system.switch_cpus.commit.committed_per_cycle::0     16925124     79.37%     79.37% # Number of insts commited each cycle
system.switch_cpus.commit.committed_per_cycle::1      1228477      5.76%     85.13% # Number of insts commited each cycle
system.switch_cpus.commit.committed_per_cycle::2       803401      3.77%     88.90% # Number of insts commited each cycle
system.switch_cpus.commit.committed_per_cycle::3       510132      2.39%     91.29% # Number of insts commited each cycle
system.switch_cpus.commit.committed_per_cycle::4       262241      1.23%     92.52% # Number of insts commited each cycle
system.switch_cpus.commit.committed_per_cycle::5       314419      1.47%     93.99% # Number of insts commited each cycle
system.switch_cpus.commit.committed_per_cycle::6       136200      0.64%     94.63% # Number of insts commited each cycle
system.switch_cpus.commit.committed_per_cycle::7       138340      0.65%     95.28% # Number of insts commited each cycle
system.switch_cpus.commit.committed_per_cycle::8      1006585      4.72%    100.00% # Number of insts commited each cycle
system.switch_cpus.commit.committed_per_cycle::overflows            0      0.00%    100.00% # Number of insts commited each cycle
system.switch_cpus.commit.committed_per_cycle::min_value            0                       # Number of insts commited each cycle
system.switch_cpus.commit.committed_per_cycle::max_value            8                       # Number of insts commited each cycle
system.switch_cpus.commit.committed_per_cycle::total     21324919                       # Number of insts commited each cycle
system.switch_cpus.commit.fp_insts              36688                       # Number of committed floating point instructions.
system.switch_cpus.commit.function_calls            0                       # Number of function calls committed.
system.switch_cpus.commit.int_insts          16806537                       # Number of committed integer instructions.
system.switch_cpus.commit.loads               1871375                       # Number of loads committed
system.switch_cpus.commit.membars                   0                       # Number of memory barriers committed
system.switch_cpus.commit.op_class_0::No_OpClass        18457      0.11%      0.11% # Class of committed instruction
system.switch_cpus.commit.op_class_0::IntAlu     14350129     85.29%     85.40% # Class of committed instruction
system.switch_cpus.commit.op_class_0::IntMult        10952      0.07%     85.47% # Class of committed instruction
system.switch_cpus.commit.op_class_0::IntDiv            0      0.00%     85.47% # Class of committed instruction
system.switch_cpus.commit.op_class_0::FloatAdd            0      0.00%     85.47% # Class of committed instruction
system.switch_cpus.commit.op_class_0::FloatCmp            0      0.00%     85.47% # Class of committed instruction
system.switch_cpus.commit.op_class_0::FloatCvt            0      0.00%     85.47% # Class of committed instruction
system.switch_cpus.commit.op_class_0::FloatMult            0      0.00%     85.47% # Class of committed instruction
system.switch_cpus.commit.op_class_0::FloatMultAcc            0      0.00%     85.47% # Class of committed instruction
system.switch_cpus.commit.op_class_0::FloatDiv            0      0.00%     85.47% # Class of committed instruction
system.switch_cpus.commit.op_class_0::FloatMisc            0      0.00%     85.47% # Class of committed instruction
system.switch_cpus.commit.op_class_0::FloatSqrt            0      0.00%     85.47% # Class of committed instruction
system.switch_cpus.commit.op_class_0::SimdAdd            0      0.00%     85.47% # Class of committed instruction
system.switch_cpus.commit.op_class_0::SimdAddAcc            0      0.00%     85.47% # Class of committed instruction
system.switch_cpus.commit.op_class_0::SimdAlu            0      0.00%     85.47% # Class of committed instruction
system.switch_cpus.commit.op_class_0::SimdCmp            0      0.00%     85.47% # Class of committed instruction
system.switch_cpus.commit.op_class_0::SimdCvt            0      0.00%     85.47% # Class of committed instruction
system.switch_cpus.commit.op_class_0::SimdMisc            0      0.00%     85.47% # Class of committed instruction
system.switch_cpus.commit.op_class_0::SimdMult            0      0.00%     85.47% # Class of committed instruction
system.switch_cpus.commit.op_class_0::SimdMultAcc            0      0.00%     85.47% # Class of committed instruction
system.switch_cpus.commit.op_class_0::SimdShift            0      0.00%     85.47% # Class of committed instruction
system.switch_cpus.commit.op_class_0::SimdShiftAcc            0      0.00%     85.47% # Class of committed instruction
system.switch_cpus.commit.op_class_0::SimdDiv            0      0.00%     85.47% # Class of committed instruction
system.switch_cpus.commit.op_class_0::SimdSqrt            0      0.00%     85.47% # Class of committed instruction
system.switch_cpus.commit.op_class_0::SimdFloatAdd            0      0.00%     85.47% # Class of committed instruction
system.switch_cpus.commit.op_class_0::SimdFloatAlu            0      0.00%     85.47% # Class of committed instruction
system.switch_cpus.commit.op_class_0::SimdFloatCmp            0      0.00%     85.47% # Class of committed instruction
system.switch_cpus.commit.op_class_0::SimdFloatCvt            0      0.00%     85.47% # Class of committed instruction
system.switch_cpus.commit.op_class_0::SimdFloatDiv            0      0.00%     85.47% # Class of committed instruction
system.switch_cpus.commit.op_class_0::SimdFloatMisc            0      0.00%     85.47% # Class of committed instruction
system.switch_cpus.commit.op_class_0::SimdFloatMult            0      0.00%     85.47% # Class of committed instruction
system.switch_cpus.commit.op_class_0::SimdFloatMultAcc            0      0.00%     85.47% # Class of committed instruction
system.switch_cpus.commit.op_class_0::SimdFloatSqrt            0      0.00%     85.47% # Class of committed instruction
system.switch_cpus.commit.op_class_0::SimdReduceAdd            0      0.00%     85.47% # Class of committed instruction
system.switch_cpus.commit.op_class_0::SimdReduceAlu            0      0.00%     85.47% # Class of committed instruction
system.switch_cpus.commit.op_class_0::SimdReduceCmp            0      0.00%     85.47% # Class of committed instruction
system.switch_cpus.commit.op_class_0::SimdFloatReduceAdd            0      0.00%     85.47% # Class of committed instruction
system.switch_cpus.commit.op_class_0::SimdFloatReduceCmp            0      0.00%     85.47% # Class of committed instruction
system.switch_cpus.commit.op_class_0::SimdAes            0      0.00%     85.47% # Class of committed instruction
system.switch_cpus.commit.op_class_0::SimdAesMix            0      0.00%     85.47% # Class of committed instruction
system.switch_cpus.commit.op_class_0::SimdSha1Hash            0      0.00%     85.47% # Class of committed instruction
system.switch_cpus.commit.op_class_0::SimdSha1Hash2            0      0.00%     85.47% # Class of committed instruction
system.switch_cpus.commit.op_class_0::SimdSha256Hash            0      0.00%     85.47% # Class of committed instruction
system.switch_cpus.commit.op_class_0::SimdSha256Hash2            0      0.00%     85.47% # Class of committed instruction
system.switch_cpus.commit.op_class_0::SimdShaSigma2            0      0.00%     85.47% # Class of committed instruction
system.switch_cpus.commit.op_class_0::SimdShaSigma3            0      0.00%     85.47% # Class of committed instruction
system.switch_cpus.commit.op_class_0::SimdPredAlu            0      0.00%     85.47% # Class of committed instruction
system.switch_cpus.commit.op_class_0::MemRead      1853031     11.01%     96.48% # Class of committed instruction
system.switch_cpus.commit.op_class_0::MemWrite       555737      3.30%     99.78% # Class of committed instruction
system.switch_cpus.commit.op_class_0::FloatMemRead        18344      0.11%     99.89% # Class of committed instruction
system.switch_cpus.commit.op_class_0::FloatMemWrite        18344      0.11%    100.00% # Class of committed instruction
system.switch_cpus.commit.op_class_0::IprAccess            0      0.00%    100.00% # Class of committed instruction
system.switch_cpus.commit.op_class_0::InstPrefetch            0      0.00%    100.00% # Class of committed instruction
system.switch_cpus.commit.op_class_0::total     16824994                       # Class of committed instruction
system.switch_cpus.commit.refs                2445456                       # Number of memory references committed
system.switch_cpus.commit.swp_count                 0                       # Number of s/w prefetches committed
system.switch_cpus.commit.vec_insts                 0                       # Number of committed Vector instructions.
system.switch_cpus.committedInsts            10000000                       # Number of Instructions Simulated
system.switch_cpus.committedOps              16824994                       # Number of Ops (including micro ops) Simulated
system.switch_cpus.cpi                       2.457265                       # CPI: Cycles Per Instruction
system.switch_cpus.cpi_total                 2.457265                       # CPI: Total CPI of All Threads
system.switch_cpus.decode.BlockedCycles      12600334                       # Number of cycles decode is blocked
system.switch_cpus.decode.DecodedInsts       45336810                       # Number of instructions handled by decode
system.switch_cpus.decode.IdleCycles          4059102                       # Number of cycles decode is idle
system.switch_cpus.decode.RunCycles           6621320                       # Number of cycles decode is running
system.switch_cpus.decode.SquashCycles         588210                       # Number of cycles decode is squashing
system.switch_cpus.decode.UnblockCycles        701156                       # Number of cycles decode is unblocking
system.switch_cpus.dtb.rdAccesses             3431603                       # TLB accesses on read requests
system.switch_cpus.dtb.rdMisses                370611                       # TLB misses on read requests
system.switch_cpus.dtb.wrAccesses             1075113                       # TLB accesses on write requests
system.switch_cpus.dtb.wrMisses                  3304                       # TLB misses on write requests
system.switch_cpus.fetch.Branches             6475647                       # Number of branches that fetch encountered
system.switch_cpus.fetch.CacheLines           4933640                       # Number of cache lines fetched
system.switch_cpus.fetch.Cycles              18743367                       # Number of cycles fetch has run and was not squashing or blocked
system.switch_cpus.fetch.IcacheSquashes        171294                       # Number of outstanding Icache misses that were squashed
system.switch_cpus.fetch.Insts               30996699                       # Number of instructions fetch has processed
system.switch_cpus.fetch.SquashCycles         1176420                       # Number of cycles fetch has spent squashing
system.switch_cpus.fetch.branchRate          0.263531                       # Number of branch fetches per cycle
system.switch_cpus.fetch.icacheStallCycles      5238550                       # Number of cycles fetch is stalled on an Icache miss
system.switch_cpus.fetch.predictedBranches      3030691                       # Number of branches that fetch has predicted taken
system.switch_cpus.fetch.rate                1.261431                       # Number of inst fetches per cycle
system.switch_cpus.fetch.rateDist::samples     24570127                       # Number of instructions fetched each cycle (Total)
system.switch_cpus.fetch.rateDist::mean      2.051400                       # Number of instructions fetched each cycle (Total)
system.switch_cpus.fetch.rateDist::stdev     3.125724                       # Number of instructions fetched each cycle (Total)
system.switch_cpus.fetch.rateDist::underflows            0      0.00%      0.00% # Number of instructions fetched each cycle (Total)
system.switch_cpus.fetch.rateDist::0         15598502     63.49%     63.49% # Number of instructions fetched each cycle (Total)
system.switch_cpus.fetch.rateDist::1           731987      2.98%     66.46% # Number of instructions fetched each cycle (Total)
system.switch_cpus.fetch.rateDist::2           927991      3.78%     70.24% # Number of instructions fetched each cycle (Total)
system.switch_cpus.fetch.rateDist::3          1008986      4.11%     74.35% # Number of instructions fetched each cycle (Total)
system.switch_cpus.fetch.rateDist::4           522853      2.13%     76.48% # Number of instructions fetched each cycle (Total)
system.switch_cpus.fetch.rateDist::5           450976      1.84%     78.31% # Number of instructions fetched each cycle (Total)
system.switch_cpus.fetch.rateDist::6          1035677      4.22%     82.53% # Number of instructions fetched each cycle (Total)
system.switch_cpus.fetch.rateDist::7           117356      0.48%     83.00% # Number of instructions fetched each cycle (Total)
system.switch_cpus.fetch.rateDist::8          4175799     17.00%    100.00% # Number of instructions fetched each cycle (Total)
system.switch_cpus.fetch.rateDist::overflows            0      0.00%    100.00% # Number of instructions fetched each cycle (Total)
system.switch_cpus.fetch.rateDist::min_value            0                       # Number of instructions fetched each cycle (Total)
system.switch_cpus.fetch.rateDist::max_value            8                       # Number of instructions fetched each cycle (Total)
system.switch_cpus.fetch.rateDist::total     24570127                       # Number of instructions fetched each cycle (Total)
system.switch_cpus.fp_regfile_reads             18425                       # number of floating regfile reads
system.switch_cpus.fp_regfile_writes            18652                       # number of floating regfile writes
system.switch_cpus.idleCycles                    2519                       # Total number of cycles that the CPU has spent unscheduled due to idling
system.switch_cpus.iew.branchMispredicts       661671                       # Number of branch mispredicts detected at execute
system.switch_cpus.iew.exec_branches          3759487                       # Number of branches executed
system.switch_cpus.iew.exec_nop                     0                       # number of nop insts executed
system.switch_cpus.iew.exec_rate             1.343514                       # Inst execution rate
system.switch_cpus.iew.exec_refs              5246707                       # number of memory reference insts executed
system.switch_cpus.iew.exec_stores            1073970                       # Number of stores executed
system.switch_cpus.iew.exec_swp                     0                       # number of swp insts executed
system.switch_cpus.iew.iewBlockCycles         3295072                       # Number of cycles IEW is blocking
system.switch_cpus.iew.iewDispLoadInsts       4207244                       # Number of dispatched load instructions
system.switch_cpus.iew.iewDispNonSpecInsts            0                       # Number of dispatched non-speculative instructions
system.switch_cpus.iew.iewDispSquashedInsts        65633                       # Number of squashed instructions skipped by dispatch
system.switch_cpus.iew.iewDispStoreInsts      1572978                       # Number of dispatched store instructions
system.switch_cpus.iew.iewDispatchedInsts     38079364                       # Number of instructions dispatched to IQ
system.switch_cpus.iew.iewExecLoadInsts       4172737                       # Number of load instructions executed
system.switch_cpus.iew.iewExecSquashedInsts      1296666                       # Number of squashed instructions skipped in execute
system.switch_cpus.iew.iewExecutedInsts      33013702                       # Number of executed instructions
system.switch_cpus.iew.iewIQFullEvents          18035                       # Number of times the IQ has become full, causing a stall
system.switch_cpus.iew.iewIdleCycles                0                       # Number of cycles IEW is idle
system.switch_cpus.iew.iewLSQFullEvents           145                       # Number of times the LSQ has become full, causing a stall
system.switch_cpus.iew.iewSquashCycles         588210                       # Number of cycles IEW is squashing
system.switch_cpus.iew.iewUnblockCycles         25623                       # Number of cycles IEW is unblocking
system.switch_cpus.iew.lsq.thread0.blockedLoads            0                       # Number of blocked loads due to partial load-store forwarding
system.switch_cpus.iew.lsq.thread0.cacheBlocked       160280                       # Number of times an access to memory failed due to the cache being blocked
system.switch_cpus.iew.lsq.thread0.forwLoads       133589                       # Number of loads that had data forwarded from stores
system.switch_cpus.iew.lsq.thread0.ignoredResponses         1587                       # Number of memory responses ignored because the instruction is squashed
system.switch_cpus.iew.lsq.thread0.invAddrLoads            0                       # Number of loads ignored due to an invalid address
system.switch_cpus.iew.lsq.thread0.invAddrSwpfs            0                       # Number of software prefetches ignored due to an invalid address
system.switch_cpus.iew.lsq.thread0.memOrderViolation         2885                       # Number of memory ordering violations
system.switch_cpus.iew.lsq.thread0.rescheduledLoads            0                       # Number of loads that were rescheduled
system.switch_cpus.iew.lsq.thread0.squashedLoads      2335864                       # Number of loads squashed
system.switch_cpus.iew.lsq.thread0.squashedStores       998893                       # Number of stores squashed
system.switch_cpus.iew.memOrderViolationEvents         2885                       # Number of memory order violations
system.switch_cpus.iew.predictedNotTakenIncorrect       457478                       # Number of branches that were predicted not taken incorrectly
system.switch_cpus.iew.predictedTakenIncorrect       204193                       # Number of branches that were predicted taken incorrectly
system.switch_cpus.iew.wb_consumers          31055409                       # num instructions consuming a value
system.switch_cpus.iew.wb_count              31650936                       # cumulative count of insts written-back
system.switch_cpus.iew.wb_fanout             0.727225                       # average fanout of values written-back
system.switch_cpus.iew.wb_producers          22584271                       # num instructions producing a value
system.switch_cpus.iew.wb_rate               1.288056                       # insts written-back per cycle
system.switch_cpus.iew.wb_sent               31785875                       # cumulative count of insts sent to commit
system.switch_cpus.int_regfile_reads         43168395                       # number of integer regfile reads
system.switch_cpus.int_regfile_writes        26783166                       # number of integer regfile writes
system.switch_cpus.ipc                       0.406957                       # IPC: Instructions Per Cycle
system.switch_cpus.ipc_total                 0.406957                       # IPC: Total IPC of All Threads
system.switch_cpus.iq.FU_type_0::No_OpClass       128394      0.37%      0.37% # Type of FU issued
system.switch_cpus.iq.FU_type_0::IntAlu      28677700     83.58%     83.96% # Type of FU issued
system.switch_cpus.iq.FU_type_0::IntMult        13800      0.04%     84.00% # Type of FU issued
system.switch_cpus.iq.FU_type_0::IntDiv             0      0.00%     84.00% # Type of FU issued
system.switch_cpus.iq.FU_type_0::FloatAdd            0      0.00%     84.00% # Type of FU issued
system.switch_cpus.iq.FU_type_0::FloatCmp            0      0.00%     84.00% # Type of FU issued
system.switch_cpus.iq.FU_type_0::FloatCvt            0      0.00%     84.00% # Type of FU issued
system.switch_cpus.iq.FU_type_0::FloatMult            0      0.00%     84.00% # Type of FU issued
system.switch_cpus.iq.FU_type_0::FloatMultAcc            0      0.00%     84.00% # Type of FU issued
system.switch_cpus.iq.FU_type_0::FloatDiv            0      0.00%     84.00% # Type of FU issued
system.switch_cpus.iq.FU_type_0::FloatMisc            0      0.00%     84.00% # Type of FU issued
system.switch_cpus.iq.FU_type_0::FloatSqrt            0      0.00%     84.00% # Type of FU issued
system.switch_cpus.iq.FU_type_0::SimdAdd            0      0.00%     84.00% # Type of FU issued
system.switch_cpus.iq.FU_type_0::SimdAddAcc            0      0.00%     84.00% # Type of FU issued
system.switch_cpus.iq.FU_type_0::SimdAlu            0      0.00%     84.00% # Type of FU issued
system.switch_cpus.iq.FU_type_0::SimdCmp            0      0.00%     84.00% # Type of FU issued
system.switch_cpus.iq.FU_type_0::SimdCvt            0      0.00%     84.00% # Type of FU issued
system.switch_cpus.iq.FU_type_0::SimdMisc            0      0.00%     84.00% # Type of FU issued
system.switch_cpus.iq.FU_type_0::SimdMult            0      0.00%     84.00% # Type of FU issued
system.switch_cpus.iq.FU_type_0::SimdMultAcc            0      0.00%     84.00% # Type of FU issued
system.switch_cpus.iq.FU_type_0::SimdShift            0      0.00%     84.00% # Type of FU issued
system.switch_cpus.iq.FU_type_0::SimdShiftAcc            0      0.00%     84.00% # Type of FU issued
system.switch_cpus.iq.FU_type_0::SimdDiv            0      0.00%     84.00% # Type of FU issued
system.switch_cpus.iq.FU_type_0::SimdSqrt            0      0.00%     84.00% # Type of FU issued
system.switch_cpus.iq.FU_type_0::SimdFloatAdd            0      0.00%     84.00% # Type of FU issued
system.switch_cpus.iq.FU_type_0::SimdFloatAlu            0      0.00%     84.00% # Type of FU issued
system.switch_cpus.iq.FU_type_0::SimdFloatCmp            0      0.00%     84.00% # Type of FU issued
system.switch_cpus.iq.FU_type_0::SimdFloatCvt            0      0.00%     84.00% # Type of FU issued
system.switch_cpus.iq.FU_type_0::SimdFloatDiv            0      0.00%     84.00% # Type of FU issued
system.switch_cpus.iq.FU_type_0::SimdFloatMisc            0      0.00%     84.00% # Type of FU issued
system.switch_cpus.iq.FU_type_0::SimdFloatMult            0      0.00%     84.00% # Type of FU issued
system.switch_cpus.iq.FU_type_0::SimdFloatMultAcc            0      0.00%     84.00% # Type of FU issued
system.switch_cpus.iq.FU_type_0::SimdFloatSqrt            0      0.00%     84.00% # Type of FU issued
system.switch_cpus.iq.FU_type_0::SimdReduceAdd            0      0.00%     84.00% # Type of FU issued
system.switch_cpus.iq.FU_type_0::SimdReduceAlu            0      0.00%     84.00% # Type of FU issued
system.switch_cpus.iq.FU_type_0::SimdReduceCmp            0      0.00%     84.00% # Type of FU issued
system.switch_cpus.iq.FU_type_0::SimdFloatReduceAdd            0      0.00%     84.00% # Type of FU issued
system.switch_cpus.iq.FU_type_0::SimdFloatReduceCmp            0      0.00%     84.00% # Type of FU issued
system.switch_cpus.iq.FU_type_0::SimdAes            0      0.00%     84.00% # Type of FU issued
system.switch_cpus.iq.FU_type_0::SimdAesMix            0      0.00%     84.00% # Type of FU issued
system.switch_cpus.iq.FU_type_0::SimdSha1Hash            0      0.00%     84.00% # Type of FU issued
system.switch_cpus.iq.FU_type_0::SimdSha1Hash2            0      0.00%     84.00% # Type of FU issued
system.switch_cpus.iq.FU_type_0::SimdSha256Hash            0      0.00%     84.00% # Type of FU issued
system.switch_cpus.iq.FU_type_0::SimdSha256Hash2            0      0.00%     84.00% # Type of FU issued
system.switch_cpus.iq.FU_type_0::SimdShaSigma2            0      0.00%     84.00% # Type of FU issued
system.switch_cpus.iq.FU_type_0::SimdShaSigma3            0      0.00%     84.00% # Type of FU issued
system.switch_cpus.iq.FU_type_0::SimdPredAlu            0      0.00%     84.00% # Type of FU issued
system.switch_cpus.iq.FU_type_0::MemRead      4352146     12.68%     96.68% # Type of FU issued
system.switch_cpus.iq.FU_type_0::MemWrite      1100475      3.21%     99.89% # Type of FU issued
system.switch_cpus.iq.FU_type_0::FloatMemRead        19378      0.06%     99.95% # Type of FU issued
system.switch_cpus.iq.FU_type_0::FloatMemWrite        18479      0.05%    100.00% # Type of FU issued
system.switch_cpus.iq.FU_type_0::IprAccess            0      0.00%    100.00% # Type of FU issued
system.switch_cpus.iq.FU_type_0::InstPrefetch            0      0.00%    100.00% # Type of FU issued
system.switch_cpus.iq.FU_type_0::total       34310372                       # Type of FU issued
system.switch_cpus.iq.fp_alu_accesses           38489                       # Number of floating point alu accesses
system.switch_cpus.iq.fp_inst_queue_reads        76366                       # Number of floating instruction queue reads
system.switch_cpus.iq.fp_inst_queue_wakeup_accesses        36884                       # Number of floating instruction queue wakeup accesses
system.switch_cpus.iq.fp_inst_queue_writes        49540                       # Number of floating instruction queue writes
system.switch_cpus.iq.fu_busy_cnt              510407                       # FU busy when requested
system.switch_cpus.iq.fu_busy_rate           0.014876                       # FU busy rate (busy events/executed inst)
system.switch_cpus.iq.fu_full::No_OpClass            0      0.00%      0.00% # attempts to use FU when none available
system.switch_cpus.iq.fu_full::IntAlu          387564     75.93%     75.93% # attempts to use FU when none available
system.switch_cpus.iq.fu_full::IntMult              0      0.00%     75.93% # attempts to use FU when none available
system.switch_cpus.iq.fu_full::IntDiv               0      0.00%     75.93% # attempts to use FU when none available
system.switch_cpus.iq.fu_full::FloatAdd             0      0.00%     75.93% # attempts to use FU when none available
system.switch_cpus.iq.fu_full::FloatCmp             0      0.00%     75.93% # attempts to use FU when none available
system.switch_cpus.iq.fu_full::FloatCvt             0      0.00%     75.93% # attempts to use FU when none available
system.switch_cpus.iq.fu_full::FloatMult            0      0.00%     75.93% # attempts to use FU when none available
system.switch_cpus.iq.fu_full::FloatMultAcc            0      0.00%     75.93% # attempts to use FU when none available
system.switch_cpus.iq.fu_full::FloatDiv             0      0.00%     75.93% # attempts to use FU when none available
system.switch_cpus.iq.fu_full::FloatMisc            0      0.00%     75.93% # attempts to use FU when none available
system.switch_cpus.iq.fu_full::FloatSqrt            0      0.00%     75.93% # attempts to use FU when none available
system.switch_cpus.iq.fu_full::SimdAdd              0      0.00%     75.93% # attempts to use FU when none available
system.switch_cpus.iq.fu_full::SimdAddAcc            0      0.00%     75.93% # attempts to use FU when none available
system.switch_cpus.iq.fu_full::SimdAlu              0      0.00%     75.93% # attempts to use FU when none available
system.switch_cpus.iq.fu_full::SimdCmp              0      0.00%     75.93% # attempts to use FU when none available
system.switch_cpus.iq.fu_full::SimdCvt              0      0.00%     75.93% # attempts to use FU when none available
system.switch_cpus.iq.fu_full::SimdMisc             0      0.00%     75.93% # attempts to use FU when none available
system.switch_cpus.iq.fu_full::SimdMult             0      0.00%     75.93% # attempts to use FU when none available
system.switch_cpus.iq.fu_full::SimdMultAcc            0      0.00%     75.93% # attempts to use FU when none available
system.switch_cpus.iq.fu_full::SimdShift            0      0.00%     75.93% # attempts to use FU when none available
system.switch_cpus.iq.fu_full::SimdShiftAcc            0      0.00%     75.93% # attempts to use FU when none available
system.switch_cpus.iq.fu_full::SimdDiv              0      0.00%     75.93% # attempts to use FU when none available
system.switch_cpus.iq.fu_full::SimdSqrt             0      0.00%     75.93% # attempts to use FU when none available
system.switch_cpus.iq.fu_full::SimdFloatAdd            0      0.00%     75.93% # attempts to use FU when none available
system.switch_cpus.iq.fu_full::SimdFloatAlu            0      0.00%     75.93% # attempts to use FU when none available
system.switch_cpus.iq.fu_full::SimdFloatCmp            0      0.00%     75.93% # attempts to use FU when none available
system.switch_cpus.iq.fu_full::SimdFloatCvt            0      0.00%     75.93% # attempts to use FU when none available
system.switch_cpus.iq.fu_full::SimdFloatDiv            0      0.00%     75.93% # attempts to use FU when none available
system.switch_cpus.iq.fu_full::SimdFloatMisc            0      0.00%     75.93% # attempts to use FU when none available
system.switch_cpus.iq.fu_full::SimdFloatMult            0      0.00%     75.93% # attempts to use FU when none available
system.switch_cpus.iq.fu_full::SimdFloatMultAcc            0      0.00%     75.93% # attempts to use FU when none available
system.switch_cpus.iq.fu_full::SimdFloatSqrt            0      0.00%     75.93% # attempts to use FU when none available
system.switch_cpus.iq.fu_full::SimdReduceAdd            0      0.00%     75.93% # attempts to use FU when none available
system.switch_cpus.iq.fu_full::SimdReduceAlu            0      0.00%     75.93% # attempts to use FU when none available
system.switch_cpus.iq.fu_full::SimdReduceCmp            0      0.00%     75.93% # attempts to use FU when none available
system.switch_cpus.iq.fu_full::SimdFloatReduceAdd            0      0.00%     75.93% # attempts to use FU when none available
system.switch_cpus.iq.fu_full::SimdFloatReduceCmp            0      0.00%     75.93% # attempts to use FU when none available
system.switch_cpus.iq.fu_full::SimdAes              0      0.00%     75.93% # attempts to use FU when none available
system.switch_cpus.iq.fu_full::SimdAesMix            0      0.00%     75.93% # attempts to use FU when none available
system.switch_cpus.iq.fu_full::SimdSha1Hash            0      0.00%     75.93% # attempts to use FU when none available
system.switch_cpus.iq.fu_full::SimdSha1Hash2            0      0.00%     75.93% # attempts to use FU when none available
system.switch_cpus.iq.fu_full::SimdSha256Hash            0      0.00%     75.93% # attempts to use FU when none available
system.switch_cpus.iq.fu_full::SimdSha256Hash2            0      0.00%     75.93% # attempts to use FU when none available
system.switch_cpus.iq.fu_full::SimdShaSigma2            0      0.00%     75.93% # attempts to use FU when none available
system.switch_cpus.iq.fu_full::SimdShaSigma3            0      0.00%     75.93% # attempts to use FU when none available
system.switch_cpus.iq.fu_full::SimdPredAlu            0      0.00%     75.93% # attempts to use FU when none available
system.switch_cpus.iq.fu_full::MemRead         121840     23.87%     99.80% # attempts to use FU when none available
system.switch_cpus.iq.fu_full::MemWrite           371      0.07%     99.88% # attempts to use FU when none available
system.switch_cpus.iq.fu_full::FloatMemRead          609      0.12%    100.00% # attempts to use FU when none available
system.switch_cpus.iq.fu_full::FloatMemWrite           23      0.00%    100.00% # attempts to use FU when none available
system.switch_cpus.iq.fu_full::IprAccess            0      0.00%    100.00% # attempts to use FU when none available
system.switch_cpus.iq.fu_full::InstPrefetch            0      0.00%    100.00% # attempts to use FU when none available
system.switch_cpus.iq.int_alu_accesses       34653896                       # Number of integer alu accesses
system.switch_cpus.iq.int_inst_queue_reads     93777376                       # Number of integer instruction queue reads
system.switch_cpus.iq.int_inst_queue_wakeup_accesses     31614052                       # Number of integer instruction queue wakeup accesses
system.switch_cpus.iq.int_inst_queue_writes     59286701                       # Number of integer instruction queue writes
system.switch_cpus.iq.iqInstsAdded           38079364                       # Number of instructions added to the IQ (excludes non-spec)
system.switch_cpus.iq.iqInstsIssued          34310372                       # Number of instructions issued
system.switch_cpus.iq.iqSquashedInstsExamined     21254338                       # Number of squashed instructions iterated over during squash; mainly for profiling
system.switch_cpus.iq.iqSquashedInstsIssued       152468                       # Number of squashed instructions issued
system.switch_cpus.iq.iqSquashedOperandsExamined     21149282                       # Number of squashed operands that are examined and possibly removed from graph
system.switch_cpus.iq.issued_per_cycle::samples     24570127                       # Number of insts issued each cycle
system.switch_cpus.iq.issued_per_cycle::mean     1.396426                       # Number of insts issued each cycle
system.switch_cpus.iq.issued_per_cycle::stdev     2.106015                       # Number of insts issued each cycle
system.switch_cpus.iq.issued_per_cycle::underflows            0      0.00%      0.00% # Number of insts issued each cycle
system.switch_cpus.iq.issued_per_cycle::0     15056116     61.28%     61.28% # Number of insts issued each cycle
system.switch_cpus.iq.issued_per_cycle::1      1390646      5.66%     66.94% # Number of insts issued each cycle
system.switch_cpus.iq.issued_per_cycle::2      1797822      7.32%     74.26% # Number of insts issued each cycle
system.switch_cpus.iq.issued_per_cycle::3      1659991      6.76%     81.01% # Number of insts issued each cycle
system.switch_cpus.iq.issued_per_cycle::4      1658956      6.75%     87.76% # Number of insts issued each cycle
system.switch_cpus.iq.issued_per_cycle::5      1261738      5.14%     92.90% # Number of insts issued each cycle
system.switch_cpus.iq.issued_per_cycle::6       998637      4.06%     96.96% # Number of insts issued each cycle
system.switch_cpus.iq.issued_per_cycle::7       561995      2.29%     99.25% # Number of insts issued each cycle
system.switch_cpus.iq.issued_per_cycle::8       184226      0.75%    100.00% # Number of insts issued each cycle
system.switch_cpus.iq.issued_per_cycle::overflows            0      0.00%    100.00% # Number of insts issued each cycle
system.switch_cpus.iq.issued_per_cycle::min_value            0                       # Number of insts issued each cycle
system.switch_cpus.iq.issued_per_cycle::max_value            8                       # Number of insts issued each cycle
system.switch_cpus.iq.issued_per_cycle::total     24570127                       # Number of insts issued each cycle
system.switch_cpus.iq.rate                   1.396283                       # Inst issue rate
system.switch_cpus.iq.vec_alu_accesses              0                       # Number of vector alu accesses
system.switch_cpus.iq.vec_inst_queue_reads            0                       # Number of vector instruction queue reads
system.switch_cpus.iq.vec_inst_queue_wakeup_accesses            0                       # Number of vector instruction queue wakeup accesses
system.switch_cpus.iq.vec_inst_queue_writes            0                       # Number of vector instruction queue writes
system.switch_cpus.itb.rdAccesses                   0                       # TLB accesses on read requests
system.switch_cpus.itb.rdMisses                     0                       # TLB misses on read requests
system.switch_cpus.itb.wrAccesses             4933640                       # TLB accesses on write requests
system.switch_cpus.itb.wrMisses                     4                       # TLB misses on write requests
system.switch_cpus.memDep0.conflictingLoads       531082                       # Number of conflicting loads.
system.switch_cpus.memDep0.conflictingStores       608082                       # Number of conflicting stores.
system.switch_cpus.memDep0.insertedLoads      4207244                       # Number of loads inserted to the mem dependence unit.
system.switch_cpus.memDep0.insertedStores      1572978                       # Number of stores inserted to the mem dependence unit.
system.switch_cpus.misc_regfile_reads        13799333                       # number of misc regfile reads
system.switch_cpus.misc_regfile_writes              1                       # number of misc regfile writes
system.switch_cpus.numCycles                 24572646                       # number of cpu cycles simulated
system.switch_cpus.numWorkItemsCompleted            0                       # number of work items this cpu completed
system.switch_cpus.numWorkItemsStarted              0                       # number of work items this cpu started
system.switch_cpus.rename.BlockCycles        12011041                       # Number of cycles rename is blocking
system.switch_cpus.rename.CommittedMaps      20843697                       # Number of HB maps that are committed
system.switch_cpus.rename.IQFullEvents         217651                       # Number of times rename has blocked due to IQ full
system.switch_cpus.rename.IdleCycles          4516125                       # Number of cycles rename is idle
system.switch_cpus.rename.LQFullEvents             10                       # Number of times rename has blocked due to LQ full
system.switch_cpus.rename.ROBFullEvents        397808                       # Number of times rename has blocked due to ROB full
system.switch_cpus.rename.RenameLookups     104465833                       # Number of register rename lookups that rename has made
system.switch_cpus.rename.RenamedInsts       42670691                       # Number of instructions processed by rename
system.switch_cpus.rename.RenamedOperands     52697311                       # Number of destination operands rename has renamed
system.switch_cpus.rename.RunCycles           6701357                       # Number of cycles rename is running
system.switch_cpus.rename.SQFullEvents            266                       # Number of times rename has blocked due to SQ full
system.switch_cpus.rename.SquashCycles         588210                       # Number of cycles rename is squashing
system.switch_cpus.rename.UnblockCycles        753389                       # Number of cycles rename is unblocking
system.switch_cpus.rename.UndoneMaps         31853556                       # Number of HB maps that are undone due to squashing
system.switch_cpus.rename.fp_rename_lookups        22975                       # Number of floating rename lookups
system.switch_cpus.rename.int_rename_lookups     59999434                       # Number of integer rename lookups
system.switch_cpus.rename.serializeStallCycles            0                       # count of cycles rename stalled for serializing inst
system.switch_cpus.rename.serializingInsts            0                       # count of serializing insts renamed
system.switch_cpus.rename.skidInsts           2409372                       # count of insts added to the skid buffer
system.switch_cpus.rename.tempSerializingInsts            0                       # count of temporary serializing insts renamed
system.switch_cpus.rob.rob_reads             58397674                       # The number of ROB reads
system.switch_cpus.rob.rob_writes            79424647                       # The number of ROB writes
system.switch_cpus.timesIdled                      24                       # Number of times that the entire CPU went into an idle state and unscheduled itself
system.tol2bus.snoop_filter.hit_multi_requests            0                       # Number of requests hitting in the snoop filter with multiple (>1) holders of the requested data.
system.tol2bus.snoop_filter.hit_multi_snoops            0                       # Number of snoops hitting in the snoop filter with multiple (>1) holders of the requested data.
system.tol2bus.snoop_filter.hit_single_requests       296417                       # Number of requests hitting in the snoop filter with a single holder of the requested data.
system.tol2bus.snoop_filter.hit_single_snoops       247725                       # Number of snoops hitting in the snoop filter with a single holder of the requested data.
system.tol2bus.snoop_filter.tot_requests       593914                       # Total number of requests made to the snoop filter.
system.tol2bus.snoop_filter.tot_snoops         247725                       # Total number of snoops made to the snoop filter.
system.membus.pwrStateResidencyTicks::UNDEFINED 926051889615500                       # Cumulative time (in ticks) in various power states
system.membus.trans_dist::ReadResp             259910                       # Transaction distribution
system.membus.trans_dist::WritebackDirty         9428                       # Transaction distribution
system.membus.trans_dist::CleanEvict           247690                       # Transaction distribution
system.membus.trans_dist::ReadExReq                 4                       # Transaction distribution
system.membus.trans_dist::ReadExResp                4                       # Transaction distribution
system.membus.trans_dist::ReadSharedReq        259913                       # Transaction distribution
system.membus.pkt_count_system.l2.mem_side::system.mem_ctrls.port       776949                       # Packet count per connected master and slave (bytes)
system.membus.pkt_count_system.l2.mem_side::total       776949                       # Packet count per connected master and slave (bytes)
system.membus.pkt_count::total                 776949                       # Packet count per connected master and slave (bytes)
system.membus.pkt_size_system.l2.mem_side::system.mem_ctrls.port     17237888                       # Cumulative packet size per connected master and slave (bytes)
system.membus.pkt_size_system.l2.mem_side::total     17237888                       # Cumulative packet size per connected master and slave (bytes)
system.membus.pkt_size::total                17237888                       # Cumulative packet size per connected master and slave (bytes)
system.membus.snoops                                0                       # Total snoops (count)
system.membus.snoopTraffic                          0                       # Total snoop traffic (bytes)
system.membus.snoop_fanout::samples            259917                       # Request fanout histogram
system.membus.snoop_fanout::mean                    0                       # Request fanout histogram
system.membus.snoop_fanout::stdev                   0                       # Request fanout histogram
system.membus.snoop_fanout::underflows              0      0.00%      0.00% # Request fanout histogram
system.membus.snoop_fanout::0                  259917    100.00%    100.00% # Request fanout histogram
system.membus.snoop_fanout::1                       0      0.00%    100.00% # Request fanout histogram
system.membus.snoop_fanout::overflows               0      0.00%    100.00% # Request fanout histogram
system.membus.snoop_fanout::min_value               0                       # Request fanout histogram
system.membus.snoop_fanout::max_value               0                       # Request fanout histogram
system.membus.snoop_fanout::total              259917                       # Request fanout histogram
system.membus.reqLayer2.occupancy           607260500                       # Layer occupancy (ticks)
system.membus.reqLayer2.utilization               4.9                       # Layer utilization (%)
system.membus.respLayer1.occupancy         1402857500                       # Layer occupancy (ticks)
system.membus.respLayer1.utilization             11.4                       # Layer utilization (%)
system.switch_cpus.pwrStateResidencyTicks::OFF  12286333000                       # Cumulative time (in ticks) in various power states
system.switch_cpus.dtb.walker.pwrStateResidencyTicks::UNDEFINED 926051889615500                       # Cumulative time (in ticks) in various power states
system.switch_cpus.itb.walker.pwrStateResidencyTicks::UNDEFINED 926051889615500                       # Cumulative time (in ticks) in various power states
system.tol2bus.pwrStateResidencyTicks::UNDEFINED 926051889615500                       # Cumulative time (in ticks) in various power states
system.tol2bus.trans_dist::ReadResp            296938                       # Transaction distribution
system.tol2bus.trans_dist::WritebackDirty        25234                       # Transaction distribution
system.tol2bus.trans_dist::CleanEvict          538727                       # Transaction distribution
system.tol2bus.trans_dist::ReadExReq              556                       # Transaction distribution
system.tol2bus.trans_dist::ReadExResp             556                       # Transaction distribution
system.tol2bus.trans_dist::ReadCleanReq            53                       # Transaction distribution
system.tol2bus.trans_dist::ReadSharedReq       296888                       # Transaction distribution
system.tol2bus.pkt_count_system.cpu.icache.mem_side::system.l2.cpu_side          106                       # Packet count per connected master and slave (bytes)
system.tol2bus.pkt_count_system.cpu.dcache.mem_side::system.l2.cpu_side       891302                       # Packet count per connected master and slave (bytes)
system.tol2bus.pkt_count::total                891408                       # Packet count per connected master and slave (bytes)
system.tol2bus.pkt_size_system.cpu.icache.mem_side::system.l2.cpu_side         3392                       # Cumulative packet size per connected master and slave (bytes)
system.tol2bus.pkt_size_system.cpu.dcache.mem_side::system.l2.cpu_side     20047808                       # Cumulative packet size per connected master and slave (bytes)
system.tol2bus.pkt_size::total               20051200                       # Cumulative packet size per connected master and slave (bytes)
system.tol2bus.snoops                          267544                       # Total snoops (count)
system.tol2bus.snoopTraffic                    603392                       # Total snoop traffic (bytes)
system.tol2bus.snoop_fanout::samples           565041                       # Request fanout histogram
system.tol2bus.snoop_fanout::mean            0.438420                       # Request fanout histogram
system.tol2bus.snoop_fanout::stdev           0.496194                       # Request fanout histogram
system.tol2bus.snoop_fanout::underflows             0      0.00%      0.00% # Request fanout histogram
system.tol2bus.snoop_fanout::0                 317316     56.16%     56.16% # Request fanout histogram
system.tol2bus.snoop_fanout::1                 247725     43.84%    100.00% # Request fanout histogram
system.tol2bus.snoop_fanout::2                      0      0.00%    100.00% # Request fanout histogram
system.tol2bus.snoop_fanout::3                      0      0.00%    100.00% # Request fanout histogram
system.tol2bus.snoop_fanout::4                      0      0.00%    100.00% # Request fanout histogram
system.tol2bus.snoop_fanout::overflows              0      0.00%    100.00% # Request fanout histogram
system.tol2bus.snoop_fanout::min_value              0                       # Request fanout histogram
system.tol2bus.snoop_fanout::max_value              1                       # Request fanout histogram
system.tol2bus.snoop_fanout::total             565041                       # Request fanout histogram
system.tol2bus.reqLayer0.occupancy          312761000                       # Layer occupancy (ticks)
system.tol2bus.reqLayer0.utilization              2.5                       # Layer utilization (%)
system.tol2bus.respLayer1.occupancy         446158500                       # Layer occupancy (ticks)
system.tol2bus.respLayer1.utilization             3.6                       # Layer utilization (%)
system.tol2bus.respLayer0.occupancy             76500                       # Layer occupancy (ticks)
system.tol2bus.respLayer0.utilization             0.0                       # Layer utilization (%)
system.voltage_domain.voltage                       1                       # Voltage in Volts
system.clk_domain.clock                          1000                       # Clock period in ticks
system.l2.pwrStateResidencyTicks::UNDEFINED 926051889615500                       # Cumulative time (in ticks) in various power states
system.l2.demand_hits::.switch_cpus.data        37580                       # number of demand (read+write) hits
system.l2.demand_hits::total                    37580                       # number of demand (read+write) hits
system.l2.overall_hits::.switch_cpus.data        37580                       # number of overall hits
system.l2.overall_hits::total                   37580                       # number of overall hits
system.l2.demand_misses::.cpu.inst                  2                       # number of demand (read+write) misses
system.l2.demand_misses::.cpu.data                  2                       # number of demand (read+write) misses
system.l2.demand_misses::.switch_cpus.inst           51                       # number of demand (read+write) misses
system.l2.demand_misses::.switch_cpus.data       259862                       # number of demand (read+write) misses
system.l2.demand_misses::total                 259917                       # number of demand (read+write) misses
system.l2.overall_misses::.cpu.inst                 2                       # number of overall misses
system.l2.overall_misses::.cpu.data                 2                       # number of overall misses
system.l2.overall_misses::.switch_cpus.inst           51                       # number of overall misses
system.l2.overall_misses::.switch_cpus.data       259862                       # number of overall misses
system.l2.overall_misses::total                259917                       # number of overall misses
system.l2.demand_miss_latency::.switch_cpus.inst      4335500                       # number of demand (read+write) miss cycles
system.l2.demand_miss_latency::.switch_cpus.data  23618203500                       # number of demand (read+write) miss cycles
system.l2.demand_miss_latency::total      23622539000                       # number of demand (read+write) miss cycles
system.l2.overall_miss_latency::.switch_cpus.inst      4335500                       # number of overall miss cycles
system.l2.overall_miss_latency::.switch_cpus.data  23618203500                       # number of overall miss cycles
system.l2.overall_miss_latency::total     23622539000                       # number of overall miss cycles
system.l2.demand_accesses::.cpu.inst                2                       # number of demand (read+write) accesses
system.l2.demand_accesses::.cpu.data                2                       # number of demand (read+write) accesses
system.l2.demand_accesses::.switch_cpus.inst           51                       # number of demand (read+write) accesses
system.l2.demand_accesses::.switch_cpus.data       297442                       # number of demand (read+write) accesses
system.l2.demand_accesses::total               297497                       # number of demand (read+write) accesses
system.l2.overall_accesses::.cpu.inst               2                       # number of overall (read+write) accesses
system.l2.overall_accesses::.cpu.data               2                       # number of overall (read+write) accesses
system.l2.overall_accesses::.switch_cpus.inst           51                       # number of overall (read+write) accesses
system.l2.overall_accesses::.switch_cpus.data       297442                       # number of overall (read+write) accesses
system.l2.overall_accesses::total              297497                       # number of overall (read+write) accesses
system.l2.demand_miss_rate::.cpu.inst               1                       # miss rate for demand accesses
system.l2.demand_miss_rate::.cpu.data               1                       # miss rate for demand accesses
system.l2.demand_miss_rate::.switch_cpus.inst            1                       # miss rate for demand accesses
system.l2.demand_miss_rate::.switch_cpus.data     0.873656                       # miss rate for demand accesses
system.l2.demand_miss_rate::total            0.873679                       # miss rate for demand accesses
system.l2.overall_miss_rate::.cpu.inst              1                       # miss rate for overall accesses
system.l2.overall_miss_rate::.cpu.data              1                       # miss rate for overall accesses
system.l2.overall_miss_rate::.switch_cpus.inst            1                       # miss rate for overall accesses
system.l2.overall_miss_rate::.switch_cpus.data     0.873656                       # miss rate for overall accesses
system.l2.overall_miss_rate::total           0.873679                       # miss rate for overall accesses
system.l2.demand_avg_miss_latency::.switch_cpus.inst 85009.803922                       # average overall miss latency
system.l2.demand_avg_miss_latency::.switch_cpus.data 90887.484511                       # average overall miss latency
system.l2.demand_avg_miss_latency::total 90884.932498                       # average overall miss latency
system.l2.overall_avg_miss_latency::.switch_cpus.inst 85009.803922                       # average overall miss latency
system.l2.overall_avg_miss_latency::.switch_cpus.data 90887.484511                       # average overall miss latency
system.l2.overall_avg_miss_latency::total 90884.932498                       # average overall miss latency
system.l2.blocked_cycles::no_mshrs                  0                       # number of cycles access was blocked
system.l2.blocked_cycles::no_targets                0                       # number of cycles access was blocked
system.l2.blocked::no_mshrs                         0                       # number of cycles access was blocked
system.l2.blocked::no_targets                       0                       # number of cycles access was blocked
system.l2.avg_blocked_cycles::no_mshrs            nan                       # average number of cycles each access was blocked
system.l2.avg_blocked_cycles::no_targets          nan                       # average number of cycles each access was blocked
system.l2.writebacks::.writebacks                9428                       # number of writebacks
system.l2.writebacks::total                      9428                       # number of writebacks
system.l2.demand_mshr_misses::.switch_cpus.inst           51                       # number of demand (read+write) MSHR misses
system.l2.demand_mshr_misses::.switch_cpus.data       259862                       # number of demand (read+write) MSHR misses
system.l2.demand_mshr_misses::total            259913                       # number of demand (read+write) MSHR misses
system.l2.overall_mshr_misses::.switch_cpus.inst           51                       # number of overall MSHR misses
system.l2.overall_mshr_misses::.switch_cpus.data       259862                       # number of overall MSHR misses
system.l2.overall_mshr_misses::total           259913                       # number of overall MSHR misses
system.l2.demand_mshr_miss_latency::.switch_cpus.inst      3825500                       # number of demand (read+write) MSHR miss cycles
system.l2.demand_mshr_miss_latency::.switch_cpus.data  21019613500                       # number of demand (read+write) MSHR miss cycles
system.l2.demand_mshr_miss_latency::total  21023439000                       # number of demand (read+write) MSHR miss cycles
system.l2.overall_mshr_miss_latency::.switch_cpus.inst      3825500                       # number of overall MSHR miss cycles
system.l2.overall_mshr_miss_latency::.switch_cpus.data  21019613500                       # number of overall MSHR miss cycles
system.l2.overall_mshr_miss_latency::total  21023439000                       # number of overall MSHR miss cycles
system.l2.demand_mshr_miss_rate::.switch_cpus.inst            1                       # mshr miss rate for demand accesses
system.l2.demand_mshr_miss_rate::.switch_cpus.data     0.873656                       # mshr miss rate for demand accesses
system.l2.demand_mshr_miss_rate::total       0.873666                       # mshr miss rate for demand accesses
system.l2.overall_mshr_miss_rate::.switch_cpus.inst            1                       # mshr miss rate for overall accesses
system.l2.overall_mshr_miss_rate::.switch_cpus.data     0.873656                       # mshr miss rate for overall accesses
system.l2.overall_mshr_miss_rate::total      0.873666                       # mshr miss rate for overall accesses
system.l2.demand_avg_mshr_miss_latency::.switch_cpus.inst 75009.803922                       # average overall mshr miss latency
system.l2.demand_avg_mshr_miss_latency::.switch_cpus.data 80887.599957                       # average overall mshr miss latency
system.l2.demand_avg_mshr_miss_latency::total 80886.446619                       # average overall mshr miss latency
system.l2.overall_avg_mshr_miss_latency::.switch_cpus.inst 75009.803922                       # average overall mshr miss latency
system.l2.overall_avg_mshr_miss_latency::.switch_cpus.data 80887.599957                       # average overall mshr miss latency
system.l2.overall_avg_mshr_miss_latency::total 80886.446619                       # average overall mshr miss latency
system.l2.replacements                         267544                       # number of replacements
system.l2.WritebackDirty_hits::.writebacks        15806                       # number of WritebackDirty hits
system.l2.WritebackDirty_hits::total            15806                       # number of WritebackDirty hits
system.l2.WritebackDirty_accesses::.writebacks        15806                       # number of WritebackDirty accesses(hits+misses)
system.l2.WritebackDirty_accesses::total        15806                       # number of WritebackDirty accesses(hits+misses)
system.l2.CleanEvict_mshr_misses::.writebacks       237299                       # number of CleanEvict MSHR misses
system.l2.CleanEvict_mshr_misses::total        237299                       # number of CleanEvict MSHR misses
system.l2.CleanEvict_mshr_miss_rate::.writebacks          inf                       # mshr miss rate for CleanEvict accesses
system.l2.CleanEvict_mshr_miss_rate::total          inf                       # mshr miss rate for CleanEvict accesses
system.l2.ReadExReq_hits::.switch_cpus.data          552                       # number of ReadExReq hits
system.l2.ReadExReq_hits::total                   552                       # number of ReadExReq hits
system.l2.ReadExReq_misses::.switch_cpus.data            4                       # number of ReadExReq misses
system.l2.ReadExReq_misses::total                   4                       # number of ReadExReq misses
system.l2.ReadExReq_miss_latency::.switch_cpus.data       292500                       # number of ReadExReq miss cycles
system.l2.ReadExReq_miss_latency::total        292500                       # number of ReadExReq miss cycles
system.l2.ReadExReq_accesses::.switch_cpus.data          556                       # number of ReadExReq accesses(hits+misses)
system.l2.ReadExReq_accesses::total               556                       # number of ReadExReq accesses(hits+misses)
system.l2.ReadExReq_miss_rate::.switch_cpus.data     0.007194                       # miss rate for ReadExReq accesses
system.l2.ReadExReq_miss_rate::total         0.007194                       # miss rate for ReadExReq accesses
system.l2.ReadExReq_avg_miss_latency::.switch_cpus.data        73125                       # average ReadExReq miss latency
system.l2.ReadExReq_avg_miss_latency::total        73125                       # average ReadExReq miss latency
system.l2.ReadExReq_mshr_misses::.switch_cpus.data            4                       # number of ReadExReq MSHR misses
system.l2.ReadExReq_mshr_misses::total              4                       # number of ReadExReq MSHR misses
system.l2.ReadExReq_mshr_miss_latency::.switch_cpus.data       252500                       # number of ReadExReq MSHR miss cycles
system.l2.ReadExReq_mshr_miss_latency::total       252500                       # number of ReadExReq MSHR miss cycles
system.l2.ReadExReq_mshr_miss_rate::.switch_cpus.data     0.007194                       # mshr miss rate for ReadExReq accesses
system.l2.ReadExReq_mshr_miss_rate::total     0.007194                       # mshr miss rate for ReadExReq accesses
system.l2.ReadExReq_avg_mshr_miss_latency::.switch_cpus.data        63125                       # average ReadExReq mshr miss latency
system.l2.ReadExReq_avg_mshr_miss_latency::total        63125                       # average ReadExReq mshr miss latency
system.l2.ReadCleanReq_misses::.cpu.inst            2                       # number of ReadCleanReq misses
system.l2.ReadCleanReq_misses::.switch_cpus.inst           51                       # number of ReadCleanReq misses
system.l2.ReadCleanReq_misses::total               53                       # number of ReadCleanReq misses
system.l2.ReadCleanReq_miss_latency::.switch_cpus.inst      4335500                       # number of ReadCleanReq miss cycles
system.l2.ReadCleanReq_miss_latency::total      4335500                       # number of ReadCleanReq miss cycles
system.l2.ReadCleanReq_accesses::.cpu.inst            2                       # number of ReadCleanReq accesses(hits+misses)
system.l2.ReadCleanReq_accesses::.switch_cpus.inst           51                       # number of ReadCleanReq accesses(hits+misses)
system.l2.ReadCleanReq_accesses::total             53                       # number of ReadCleanReq accesses(hits+misses)
system.l2.ReadCleanReq_miss_rate::.cpu.inst            1                       # miss rate for ReadCleanReq accesses
system.l2.ReadCleanReq_miss_rate::.switch_cpus.inst            1                       # miss rate for ReadCleanReq accesses
system.l2.ReadCleanReq_miss_rate::total             1                       # miss rate for ReadCleanReq accesses
system.l2.ReadCleanReq_avg_miss_latency::.switch_cpus.inst 85009.803922                       # average ReadCleanReq miss latency
system.l2.ReadCleanReq_avg_miss_latency::total 81801.886792                       # average ReadCleanReq miss latency
system.l2.ReadCleanReq_mshr_misses::.switch_cpus.inst           51                       # number of ReadCleanReq MSHR misses
system.l2.ReadCleanReq_mshr_misses::total           51                       # number of ReadCleanReq MSHR misses
system.l2.ReadCleanReq_mshr_miss_latency::.switch_cpus.inst      3825500                       # number of ReadCleanReq MSHR miss cycles
system.l2.ReadCleanReq_mshr_miss_latency::total      3825500                       # number of ReadCleanReq MSHR miss cycles
system.l2.ReadCleanReq_mshr_miss_rate::.switch_cpus.inst            1                       # mshr miss rate for ReadCleanReq accesses
system.l2.ReadCleanReq_mshr_miss_rate::total     0.962264                       # mshr miss rate for ReadCleanReq accesses
system.l2.ReadCleanReq_avg_mshr_miss_latency::.switch_cpus.inst 75009.803922                       # average ReadCleanReq mshr miss latency
system.l2.ReadCleanReq_avg_mshr_miss_latency::total 75009.803922                       # average ReadCleanReq mshr miss latency
system.l2.ReadSharedReq_hits::.switch_cpus.data        37028                       # number of ReadSharedReq hits
system.l2.ReadSharedReq_hits::total             37028                       # number of ReadSharedReq hits
system.l2.ReadSharedReq_misses::.cpu.data            2                       # number of ReadSharedReq misses
[...]
system.cpu.icache.tags.occ_task_id_percent::1024     0.115234                       # Percentage of cache occupancy per task id
system.cpu.icache.tags.tag_accesses          31344519                       # Number of tag accesses
system.cpu.icache.tags.data_accesses         31344519                       # Number of data accesses
system.cpu.dtb.walker.pwrStateResidencyTicks::UNDEFINED 926124878244500                       # Cumulative time (in ticks) in various power states
system.cpu.interrupts.clk_domain.clock           8000                       # Clock period in ticks
system.cpu.itb_walker_cache.pwrStateResidencyTicks::UNDEFINED 926124878244500                       # Cumulative time (in ticks) in various power states
system.cpu.itb_walker_cache.blocked_cycles::no_mshrs            0                       # number of cycles access was blocked
system.cpu.itb_walker_cache.blocked_cycles::no_targets            0                       # number of cycles access was blocked
system.cpu.itb_walker_cache.blocked::no_mshrs            0                       # number of cycles access was blocked
system.cpu.itb_walker_cache.blocked::no_targets            0                       # number of cycles access was blocked
system.cpu.itb_walker_cache.avg_blocked_cycles::no_mshrs          nan                       # average number of cycles each access was blocked
system.cpu.itb_walker_cache.avg_blocked_cycles::no_targets          nan                       # average number of cycles each access was blocked
system.cpu.itb_walker_cache.replacements            0                       # number of replacements
system.cpu.itb_walker_cache.tags.pwrStateResidencyTicks::UNDEFINED 926124878244500                       # Cumulative time (in ticks) in various power states
system.cpu.itb_walker_cache.tags.tagsinuse            0                       # Cycle average of tags in use
system.cpu.itb_walker_cache.tags.total_refs            0                       # Total number of references to valid blocks.
system.cpu.itb_walker_cache.tags.sampled_refs            0                       # Sample count of references to valid blocks.
system.cpu.itb_walker_cache.tags.avg_refs          nan                       # Average number of references to valid blocks.
system.cpu.itb_walker_cache.tags.warmup_cycle            0                       # Cycle when the warmup percentage was hit.
system.cpu.itb_walker_cache.tags.tag_accesses            0                       # Number of tag accesses
system.cpu.itb_walker_cache.tags.data_accesses            0                       # Number of data accesses
system.cpu.itb.walker.pwrStateResidencyTicks::UNDEFINED 926124878244500                       # Cumulative time (in ticks) in various power states
system.cpu.dtb_walker_cache.pwrStateResidencyTicks::UNDEFINED 926124878244500                       # Cumulative time (in ticks) in various power states
system.cpu.dtb_walker_cache.blocked_cycles::no_mshrs            0                       # number of cycles access was blocked
system.cpu.dtb_walker_cache.blocked_cycles::no_targets            0                       # number of cycles access was blocked
system.cpu.dtb_walker_cache.blocked::no_mshrs            0                       # number of cycles access was blocked
system.cpu.dtb_walker_cache.blocked::no_targets            0                       # number of cycles access was blocked
system.cpu.dtb_walker_cache.avg_blocked_cycles::no_mshrs          nan                       # average number of cycles each access was blocked
system.cpu.dtb_walker_cache.avg_blocked_cycles::no_targets          nan                       # average number of cycles each access was blocked
system.cpu.dtb_walker_cache.replacements            0                       # number of replacements
system.cpu.dtb_walker_cache.tags.pwrStateResidencyTicks::UNDEFINED 926124878244500                       # Cumulative time (in ticks) in various power states
system.cpu.dtb_walker_cache.tags.tagsinuse            0                       # Cycle average of tags in use
system.cpu.dtb_walker_cache.tags.total_refs            0                       # Total number of references to valid blocks.
system.cpu.dtb_walker_cache.tags.sampled_refs            0                       # Sample count of references to valid blocks.
system.cpu.dtb_walker_cache.tags.avg_refs          nan                       # Average number of references to valid blocks.
system.cpu.dtb_walker_cache.tags.warmup_cycle            0                       # Cycle when the warmup percentage was hit.
system.cpu.dtb_walker_cache.tags.tag_accesses            0                       # Number of tag accesses
system.cpu.dtb_walker_cache.tags.data_accesses            0                       # Number of data accesses
system.cpu.dcache.pwrStateResidencyTicks::UNDEFINED 926124878244500                       # Cumulative time (in ticks) in various power states
system.cpu.dcache.demand_hits::.switch_cpus.data     12405620                       # number of demand (read+write) hits
system.cpu.dcache.demand_hits::total         12405620                       # number of demand (read+write) hits
system.cpu.dcache.overall_hits::.switch_cpus.data     12405620                       # number of overall hits
system.cpu.dcache.overall_hits::total        12405620                       # number of overall hits
system.cpu.dcache.demand_misses::.cpu.data            2                       # number of demand (read+write) misses
system.cpu.dcache.demand_misses::.switch_cpus.data      1688427                       # number of demand (read+write) misses
system.cpu.dcache.demand_misses::total        1688429                       # number of demand (read+write) misses
system.cpu.dcache.overall_misses::.cpu.data            2                       # number of overall misses
system.cpu.dcache.overall_misses::.switch_cpus.data      1688427                       # number of overall misses
system.cpu.dcache.overall_misses::total       1688429                       # number of overall misses
system.cpu.dcache.demand_miss_latency::.switch_cpus.data 136124698996                       # number of demand (read+write) miss cycles
system.cpu.dcache.demand_miss_latency::total 136124698996                       # number of demand (read+write) miss cycles
system.cpu.dcache.overall_miss_latency::.switch_cpus.data 136124698996                       # number of overall miss cycles
system.cpu.dcache.overall_miss_latency::total 136124698996                       # number of overall miss cycles
system.cpu.dcache.demand_accesses::.cpu.data            2                       # number of demand (read+write) accesses
system.cpu.dcache.demand_accesses::.switch_cpus.data     14094047                       # number of demand (read+write) accesses
system.cpu.dcache.demand_accesses::total     14094049                       # number of demand (read+write) accesses
system.cpu.dcache.overall_accesses::.cpu.data            2                       # number of overall (read+write) accesses
system.cpu.dcache.overall_accesses::.switch_cpus.data     14094047                       # number of overall (read+write) accesses
system.cpu.dcache.overall_accesses::total     14094049                       # number of overall (read+write) accesses
system.cpu.dcache.demand_miss_rate::.cpu.data            1                       # miss rate for demand accesses
system.cpu.dcache.demand_miss_rate::.switch_cpus.data     0.119797                       # miss rate for demand accesses
system.cpu.dcache.demand_miss_rate::total     0.119797                       # miss rate for demand accesses
system.cpu.dcache.overall_miss_rate::.cpu.data            1                       # miss rate for overall accesses
system.cpu.dcache.overall_miss_rate::.switch_cpus.data     0.119797                       # miss rate for overall accesses
system.cpu.dcache.overall_miss_rate::total     0.119797                       # miss rate for overall accesses
system.cpu.dcache.demand_avg_miss_latency::.switch_cpus.data 80622.199832                       # average overall miss latency
system.cpu.dcache.demand_avg_miss_latency::total 80622.104332                       # average overall miss latency
system.cpu.dcache.overall_avg_miss_latency::.switch_cpus.data 80622.199832                       # average overall miss latency
system.cpu.dcache.overall_avg_miss_latency::total 80622.104332                       # average overall miss latency
system.cpu.dcache.blocked_cycles::no_mshrs     20727222                       # number of cycles access was blocked
system.cpu.dcache.blocked_cycles::no_targets         6338                       # number of cycles access was blocked
system.cpu.dcache.blocked::no_mshrs            423540                       # number of cycles access was blocked
system.cpu.dcache.blocked::no_targets             108                       # number of cycles access was blocked
system.cpu.dcache.avg_blocked_cycles::no_mshrs    48.938051                       # average number of cycles each access was blocked
system.cpu.dcache.avg_blocked_cycles::no_targets    58.685185                       # average number of cycles each access was blocked
system.cpu.dcache.writebacks::.writebacks       529974                       # number of writebacks
system.cpu.dcache.writebacks::total            529974                       # number of writebacks
system.cpu.dcache.demand_mshr_hits::.switch_cpus.data       389720                       # number of demand (read+write) MSHR hits
system.cpu.dcache.demand_mshr_hits::total       389720                       # number of demand (read+write) MSHR hits
system.cpu.dcache.overall_mshr_hits::.switch_cpus.data       389720                       # number of overall MSHR hits
system.cpu.dcache.overall_mshr_hits::total       389720                       # number of overall MSHR hits
system.cpu.dcache.demand_mshr_misses::.switch_cpus.data      1298707                       # number of demand (read+write) MSHR misses
system.cpu.dcache.demand_mshr_misses::total      1298707                       # number of demand (read+write) MSHR misses
system.cpu.dcache.overall_mshr_misses::.switch_cpus.data      1298707                       # number of overall MSHR misses
system.cpu.dcache.overall_mshr_misses::total      1298707                       # number of overall MSHR misses
system.cpu.dcache.demand_mshr_miss_latency::.switch_cpus.data 117634078996                       # number of demand (read+write) MSHR miss cycles
system.cpu.dcache.demand_mshr_miss_latency::total 117634078996                       # number of demand (read+write) MSHR miss cycles
system.cpu.dcache.overall_mshr_miss_latency::.switch_cpus.data 117634078996                       # number of overall MSHR miss cycles
system.cpu.dcache.overall_mshr_miss_latency::total 117634078996                       # number of overall MSHR miss cycles
system.cpu.dcache.demand_mshr_miss_rate::.switch_cpus.data     0.092146                       # mshr miss rate for demand accesses
system.cpu.dcache.demand_mshr_miss_rate::total     0.092146                       # mshr miss rate for demand accesses
system.cpu.dcache.overall_mshr_miss_rate::.switch_cpus.data     0.092146                       # mshr miss rate for overall accesses
system.cpu.dcache.overall_mshr_miss_rate::total     0.092146                       # mshr miss rate for overall accesses
system.cpu.dcache.demand_avg_mshr_miss_latency::.switch_cpus.data 90577.843190                       # average overall mshr miss latency
system.cpu.dcache.demand_avg_mshr_miss_latency::total 90577.843190                       # average overall mshr miss latency
system.cpu.dcache.overall_avg_mshr_miss_latency::.switch_cpus.data 90577.843190                       # average overall mshr miss latency
system.cpu.dcache.overall_avg_mshr_miss_latency::total 90577.843190                       # average overall mshr miss latency
system.cpu.dcache.replacements                1297685                       # number of replacements
system.cpu.dcache.ReadReq_hits::.switch_cpus.data     10405025                       # number of ReadReq hits
system.cpu.dcache.ReadReq_hits::total        10405025                       # number of ReadReq hits
system.cpu.dcache.ReadReq_misses::.cpu.data            2                       # number of ReadReq misses
system.cpu.dcache.ReadReq_misses::.switch_cpus.data      1203293                       # number of ReadReq misses
system.cpu.dcache.ReadReq_misses::total       1203295                       # number of ReadReq misses
system.cpu.dcache.ReadReq_miss_latency::.switch_cpus.data  88883820000                       # number of ReadReq miss cycles
system.cpu.dcache.ReadReq_miss_latency::total  88883820000                       # number of ReadReq miss cycles
system.cpu.dcache.ReadReq_accesses::.cpu.data            2                       # number of ReadReq accesses(hits+misses)
system.cpu.dcache.ReadReq_accesses::.switch_cpus.data     11608318                       # number of ReadReq accesses(hits+misses)
system.cpu.dcache.ReadReq_accesses::total     11608320                       # number of ReadReq accesses(hits+misses)
system.cpu.dcache.ReadReq_miss_rate::.cpu.data            1                       # miss rate for ReadReq accesses
system.cpu.dcache.ReadReq_miss_rate::.switch_cpus.data     0.103658                       # miss rate for ReadReq accesses
system.cpu.dcache.ReadReq_miss_rate::total     0.103658                       # miss rate for ReadReq accesses
system.cpu.dcache.ReadReq_avg_miss_latency::.switch_cpus.data 73867.146240                       # average ReadReq miss latency
system.cpu.dcache.ReadReq_avg_miss_latency::total 73867.023465                       # average ReadReq miss latency
system.cpu.dcache.ReadReq_mshr_hits::.switch_cpus.data       389717                       # number of ReadReq MSHR hits
system.cpu.dcache.ReadReq_mshr_hits::total       389717                       # number of ReadReq MSHR hits
system.cpu.dcache.ReadReq_mshr_misses::.switch_cpus.data       813576                       # number of ReadReq MSHR misses
system.cpu.dcache.ReadReq_mshr_misses::total       813576                       # number of ReadReq MSHR misses
system.cpu.dcache.ReadReq_mshr_miss_latency::.switch_cpus.data  70878351500                       # number of ReadReq MSHR miss cycles
system.cpu.dcache.ReadReq_mshr_miss_latency::total  70878351500                       # number of ReadReq MSHR miss cycles
system.cpu.dcache.ReadReq_mshr_miss_rate::.switch_cpus.data     0.070086                       # mshr miss rate for ReadReq accesses
system.cpu.dcache.ReadReq_mshr_miss_rate::total     0.070086                       # mshr miss rate for ReadReq accesses
system.cpu.dcache.ReadReq_avg_mshr_miss_latency::.switch_cpus.data 87119.521102                       # average ReadReq mshr miss latency
system.cpu.dcache.ReadReq_avg_mshr_miss_latency::total 87119.521102                       # average ReadReq mshr miss latency
system.cpu.dcache.WriteReq_hits::.switch_cpus.data      2000595                       # number of WriteReq hits
system.cpu.dcache.WriteReq_hits::total        2000595                       # number of WriteReq hits
system.cpu.dcache.WriteReq_misses::.switch_cpus.data       485134                       # number of WriteReq misses
system.cpu.dcache.WriteReq_misses::total       485134                       # number of WriteReq misses
system.cpu.dcache.WriteReq_miss_latency::.switch_cpus.data  47240878996                       # number of WriteReq miss cycles
system.cpu.dcache.WriteReq_miss_latency::total  47240878996                       # number of WriteReq miss cycles
system.cpu.dcache.WriteReq_accesses::.switch_cpus.data      2485729                       # number of WriteReq accesses(hits+misses)
system.cpu.dcache.WriteReq_accesses::total      2485729                       # number of WriteReq accesses(hits+misses)
system.cpu.dcache.WriteReq_miss_rate::.switch_cpus.data     0.195168                       # miss rate for WriteReq accesses
system.cpu.dcache.WriteReq_miss_rate::total     0.195168                       # miss rate for WriteReq accesses
system.cpu.dcache.WriteReq_avg_miss_latency::.switch_cpus.data 97376.970066                       # average WriteReq miss latency
system.cpu.dcache.WriteReq_avg_miss_latency::total 97376.970066                       # average WriteReq miss latency
system.cpu.dcache.WriteReq_mshr_hits::.switch_cpus.data            3                       # number of WriteReq MSHR hits
system.cpu.dcache.WriteReq_mshr_hits::total            3                       # number of WriteReq MSHR hits
system.cpu.dcache.WriteReq_mshr_misses::.switch_cpus.data       485131                       # number of WriteReq MSHR misses
system.cpu.dcache.WriteReq_mshr_misses::total       485131                       # number of WriteReq MSHR misses
system.cpu.dcache.WriteReq_mshr_miss_latency::.switch_cpus.data  46755727496                       # number of WriteReq MSHR miss cycles
system.cpu.dcache.WriteReq_mshr_miss_latency::total  46755727496                       # number of WriteReq MSHR miss cycles
system.cpu.dcache.WriteReq_mshr_miss_rate::.switch_cpus.data     0.195166                       # mshr miss rate for WriteReq accesses
system.cpu.dcache.WriteReq_mshr_miss_rate::total     0.195166                       # mshr miss rate for WriteReq accesses
system.cpu.dcache.WriteReq_avg_mshr_miss_latency::.switch_cpus.data 96377.529979                       # average WriteReq mshr miss latency
system.cpu.dcache.WriteReq_avg_mshr_miss_latency::total 96377.529979                       # average WriteReq mshr miss latency
system.cpu.dcache.tags.pwrStateResidencyTicks::UNDEFINED 926124878244500                       # Cumulative time (in ticks) in various power states
system.cpu.dcache.tags.tagsinuse             0.094242                       # Cycle average of tags in use
system.cpu.dcache.tags.total_refs            13704329                       # Total number of references to valid blocks.
system.cpu.dcache.tags.sampled_refs           1298709                       # Sample count of references to valid blocks.
system.cpu.dcache.tags.avg_refs             10.552271                       # Average number of references to valid blocks.
system.cpu.dcache.tags.warmup_cycle      926039603283000                       # Cycle when the warmup percentage was hit.
system.cpu.dcache.tags.occ_blocks::.cpu.data     0.000000                       # Average occupied blocks per requestor
system.cpu.dcache.tags.occ_blocks::.switch_cpus.data     0.094241                       # Average occupied blocks per requestor
system.cpu.dcache.tags.occ_percent::.cpu.data     0.000000                       # Average percentage of cache occupancy
system.cpu.dcache.tags.occ_percent::.switch_cpus.data     0.000092                       # Average percentage of cache occupancy
system.cpu.dcache.tags.occ_percent::total     0.000092                       # Average percentage of cache occupancy
system.cpu.dcache.tags.occ_task_id_blocks::1024         1024                       # Occupied blocks per task id
system.cpu.dcache.tags.age_task_id_blocks_1024::0          123                       # Occupied blocks per task id
system.cpu.dcache.tags.age_task_id_blocks_1024::1          717                       # Occupied blocks per task id
system.cpu.dcache.tags.age_task_id_blocks_1024::2          180                       # Occupied blocks per task id
system.cpu.dcache.tags.age_task_id_blocks_1024::3            4                       # Occupied blocks per task id
system.cpu.dcache.tags.occ_task_id_percent::1024            1                       # Percentage of cache occupancy per task id
system.cpu.dcache.tags.tag_accesses          29486807                       # Number of tag accesses
system.cpu.dcache.tags.data_accesses         29486807                       # Number of data accesses

---------- End Simulation Statistics   ----------
