
---------- Begin Simulation Statistics ----------
final_tick                               190182929094000                       # Number of ticks from beginning of simulation (restored from checkpoints and never reset)
host_inst_rate                                  25460                       # Simulator instruction rate (inst/s)
host_mem_usage                                 827472                       # Number of bytes of host memory used
host_op_rate                                    44719                       # Simulator op (including micro ops) rate (op/s)
host_seconds                                   392.77                       # Real time elapsed on the host
host_tick_rate                               82478494                       # Simulator tick rate (ticks/s)
sim_freq                                 1000000000000                       # Frequency of simulated ticks
sim_insts                                    10000011                       # Number of instructions simulated
sim_ops                                      17564244                       # Number of ops (including micro ops) simulated
sim_seconds                                  0.032395                       # Number of seconds simulated
sim_ticks                                 32394825250                       # Number of ticks simulated
system.cpu.Branches                                 4                       # Number of branches fetched
system.cpu.committedInsts                          10                       # Number of instructions committed
system.cpu.committedOps                            20                       # Number of ops (including micro ops) committed
system.cpu.dtb.rdAccesses                           2                       # TLB accesses on read requests
system.cpu.dtb.rdMisses                             1                       # TLB misses on read requests
system.cpu.dtb.wrAccesses                           0                       # TLB accesses on write requests
system.cpu.dtb.wrMisses                             0                       # TLB misses on write requests
system.cpu.idle_fraction                            0                       # Percentage of idle cycles
system.cpu.itb.rdAccesses                           0                       # TLB accesses on read requests
system.cpu.itb.rdMisses                             0                       # TLB misses on read requests
system.cpu.itb.wrAccesses                          12                       # TLB accesses on write requests
system.cpu.itb.wrMisses                             0                       # TLB misses on write requests
system.cpu.not_idle_fraction                        1                       # Percentage of non-idle cycles
system.cpu.numCycles                               22                       # number of cpu cycles simulated
system.cpu.numWorkItemsCompleted                    0                       # number of work items this cpu completed
system.cpu.numWorkItemsStarted                      0                       # number of work items this cpu started
system.cpu.num_busy_cycles                         22                       # Number of busy cycles
system.cpu.num_cc_register_reads                   21                       # number of times the CC registers were read
system.cpu.num_cc_register_writes                  10                       # number of times the CC registers were written
system.cpu.num_conditional_control_insts            4                       # number of instructions that are conditional controls
system.cpu.num_fp_alu_accesses                      0                       # Number of float alu accesses
system.cpu.num_fp_insts                             0                       # number of float instructions
system.cpu.num_fp_register_reads                    0                       # number of times the floating registers were read
system.cpu.num_fp_register_writes                   0                       # number of times the floating registers were written
system.cpu.num_func_calls                           0                       # number of times a function call or return occured
system.cpu.num_idle_cycles                          0                       # Number of idle cycles
system.cpu.num_int_alu_accesses                    20                       # Number of integer alu accesses
system.cpu.num_int_insts                           20                       # number of integer instructions
system.cpu.num_int_register_reads                  32                       # number of times the integer registers were read
system.cpu.num_int_register_writes                 16                       # number of times the integer registers were written
system.cpu.num_load_insts                           2                       # Number of load instructions
system.cpu.num_mem_refs                             2                       # number of memory refs
system.cpu.num_store_insts                          0                       # Number of store instructions
system.cpu.num_vec_alu_accesses                     0                       # Number of vector alu accesses
system.cpu.num_vec_insts                            0                       # number of vector instructions
system.cpu.num_vec_register_reads                   0                       # number of times the vector registers were read
system.cpu.num_vec_register_writes                  0                       # number of times the vector registers were written
system.cpu.op_class::No_OpClass                     0      0.00%      0.00% # Class of executed instruction
system.cpu.op_class::IntAlu                        18     90.00%     90.00% # Class of executed instruction
system.cpu.op_class::IntMult                        0      0.00%     90.00% # Class of executed instruction
system.cpu.op_class::IntDiv                         0      0.00%     90.00% # Class of executed instruction
system.cpu.op_class::FloatAdd                       0      0.00%     90.00% # Class of executed instruction
system.cpu.op_class::FloatCmp                       0      0.00%     90.00% # Class of executed instruction
system.cpu.op_class::FloatCvt                       0      0.00%     90.00% # Class of executed instruction
system.cpu.op_class::FloatMult                      0      0.00%     90.00% # Class of executed instruction
system.cpu.op_class::FloatMultAcc                   0      0.00%     90.00% # Class of executed instruction
system.cpu.op_class::FloatDiv                       0      0.00%     90.00% # Class of executed instruction
system.cpu.op_class::FloatMisc                      0      0.00%     90.00% # Class of executed instruction
system.cpu.op_class::FloatSqrt                      0      0.00%     90.00% # Class of executed instruction
system.cpu.op_class::SimdAdd                        0      0.00%     90.00% # Class of executed instruction
system.cpu.op_class::SimdAddAcc                     0      0.00%     90.00% # Class of executed instruction
system.cpu.op_class::SimdAlu                        0      0.00%     90.00% # Class of executed instruction
system.cpu.op_class::SimdCmp                        0      0.00%     90.00% # Class of executed instruction
system.cpu.op_class::SimdCvt                        0      0.00%     90.00% # Class of executed instruction
system.cpu.op_class::SimdMisc                       0      0.00%     90.00% # Class of executed instruction
system.cpu.op_class::SimdMult                       0      0.00%     90.00% # Class of executed instruction
system.cpu.op_class::SimdMultAcc                    0      0.00%     90.00% # Class of executed instruction
system.cpu.op_class::SimdShift                      0      0.00%     90.00% # Class of executed instruction
system.cpu.op_class::SimdShiftAcc                   0      0.00%     90.00% # Class of executed instruction
system.cpu.op_class::SimdDiv                        0      0.00%     90.00% # Class of executed instruction
system.cpu.op_class::SimdSqrt                       0      0.00%     90.00% # Class of executed instruction
system.cpu.op_class::SimdFloatAdd                   0      0.00%     90.00% # Class of executed instruction
system.cpu.op_class::SimdFloatAlu                   0      0.00%     90.00% # Class of executed instruction
system.cpu.op_class::SimdFloatCmp                   0      0.00%     90.00% # Class of executed instruction
system.cpu.op_class::SimdFloatCvt                   0      0.00%     90.00% # Class of executed instruction
system.cpu.op_class::SimdFloatDiv                   0      0.00%     90.00% # Class of executed instruction
system.cpu.op_class::SimdFloatMisc                  0      0.00%     90.00% # Class of executed instruction
system.cpu.op_class::SimdFloatMult                  0      0.00%     90.00% # Class of executed instruction
system.cpu.op_class::SimdFloatMultAcc               0      0.00%     90.00% # Class of executed instruction
system.cpu.op_class::SimdFloatSqrt                  0      0.00%     90.00% # Class of executed instruction
system.cpu.op_class::SimdReduceAdd                  0      0.00%     90.00% # Class of executed instruction
system.cpu.op_class::SimdReduceAlu                  0      0.00%     90.00% # Class of executed instruction
system.cpu.op_class::SimdReduceCmp                  0      0.00%     90.00% # Class of executed instruction
system.cpu.op_class::SimdFloatReduceAdd             0      0.00%     90.00% # Class of executed instruction
system.cpu.op_class::SimdFloatReduceCmp             0      0.00%     90.00% # Class of executed instruction
system.cpu.op_class::SimdAes                        0      0.00%     90.00% # Class of executed instruction
system.cpu.op_class::SimdAesMix                     0      0.00%     90.00% # Class of executed instruction
system.cpu.op_class::SimdSha1Hash                   0      0.00%     90.00% # Class of executed instruction
system.cpu.op_class::SimdSha1Hash2                  0      0.00%     90.00% # Class of executed instruction
system.cpu.op_class::SimdSha256Hash                 0      0.00%     90.00% # Class of executed instruction
system.cpu.op_class::SimdSha256Hash2                0      0.00%     90.00% # Class of executed instruction
system.cpu.op_class::SimdShaSigma2                  0      0.00%     90.00% # Class of executed instruction
system.cpu.op_class::SimdShaSigma3                  0      0.00%     90.00% # Class of executed instruction
system.cpu.op_class::SimdPredAlu                    0      0.00%     90.00% # Class of executed instruction
system.cpu.op_class::MemRead                        2     10.00%    100.00% # Class of executed instruction
system.cpu.op_class::MemWrite                       0      0.00%    100.00% # Class of executed instruction
system.cpu.op_class::FloatMemRead                   0      0.00%    100.00% # Class of executed instruction
system.cpu.op_class::FloatMemWrite                  0      0.00%    100.00% # Class of executed instruction
system.cpu.op_class::IprAccess                      0      0.00%    100.00% # Class of executed instruction
system.cpu.op_class::InstPrefetch                   0      0.00%    100.00% # Class of executed instruction
system.cpu.op_class::total                         20                       # Class of executed instruction
system.cpu.workload.numSyscalls                     0                       # Number of system calls
system.membus.snoop_filter.hit_multi_requests            0                       # Number of requests hitting in the snoop filter with multiple (>1) holders of the requested data.
system.membus.snoop_filter.hit_multi_snoops            0                       # Number of snoops hitting in the snoop filter with multiple (>1) holders of the requested data.
system.membus.snoop_filter.hit_single_requests       986462                       # Number of requests hitting in the snoop filter with a single holder of the requested data.
system.membus.snoop_filter.hit_single_snoops            0                       # Number of snoops hitting in the snoop filter with a single holder of the requested data.
system.membus.snoop_filter.tot_requests       1975478                       # Total number of requests made to the snoop filter.
system.membus.snoop_filter.tot_snoops               0                       # Total number of snoops made to the snoop filter.
system.switch_cpus.branchPred.BTBCorrect            0                       # Number of correct BTB predictions (this stat may not work properly.
system.switch_cpus.branchPred.BTBHitPct      0.000000                       # BTB Hit Percentage
system.switch_cpus.branchPred.BTBHits               0                       # Number of BTB hits
system.switch_cpus.branchPred.BTBLookups      3052478                       # Number of BTB lookups
system.switch_cpus.branchPred.RASInCorrect            1                       # Number of incorrect RAS predictions.
system.switch_cpus.branchPred.condIncorrect       175104                       # Number of conditional branches incorrect
system.switch_cpus.branchPred.condPredicted      4213842                       # Number of conditional branches predicted
system.switch_cpus.branchPred.indirectHits      1884331                       # Number of indirect target hits.
system.switch_cpus.branchPred.indirectLookups      3052478                       # Number of indirect predictor lookups.
system.switch_cpus.branchPred.indirectMisses      1168147                       # Number of indirect misses.
system.switch_cpus.branchPred.lookups         4272599                       # Number of BP lookups
system.switch_cpus.branchPred.usedRAS           31968                       # Number of times the RAS was used to get a target.
system.switch_cpus.branchPredindirectMispredicted       118265                       # Number of mispredicted indirect branches.
system.switch_cpus.cc_regfile_reads          15678041                       # number of cc regfile reads
system.switch_cpus.cc_regfile_writes          9227930                       # number of cc regfile writes
system.switch_cpus.commit.amos                      0                       # Number of atomic instructions committed
system.switch_cpus.commit.branchMispredicts       175128                       # The number of times a branch was mispredicted
system.switch_cpus.commit.branches            2713377                       # Number of branches committed
system.switch_cpus.commit.bw_lim_events       1361801                       # number cycles where commit BW limit reached
system.switch_cpus.commit.commitSquashedInsts      6606674                       # The number of squashed insts skipped by commit
system.switch_cpus.commit.committedInsts     10000001                       # Number of instructions committed
system.switch_cpus.commit.committedOps       17564224                       # Number of ops (including micro ops) committed
system.switch_cpus.commit.committed_per_cycle::samples     63762880                       # Number of insts commited each cycle
system.switch_cpus.commit.committed_per_cycle::mean     0.275462                       # Number of insts commited each cycle
system.switch_cpus.commit.committed_per_cycle::stdev     1.272052                       # Number of insts commited each cycle
system.switch_cpus.commit.committed_per_cycle::underflows            0      0.00%      0.00% # Number of insts commited each cycle
system.switch_cpus.commit.committed_per_cycle::0     59549563     93.39%     93.39% # Number of insts commited each cycle
system.switch_cpus.commit.committed_per_cycle::1      1094916      1.72%     95.11% # Number of insts commited each cycle
system.switch_cpus.commit.committed_per_cycle::2       411572      0.65%     95.75% # Number of insts commited each cycle
system.switch_cpus.commit.committed_per_cycle::3       967842      1.52%     97.27% # Number of insts commited each cycle
system.switch_cpus.commit.committed_per_cycle::4       160800      0.25%     97.52% # Number of insts commited each cycle
system.switch_cpus.commit.committed_per_cycle::5       128533      0.20%     97.73% # Number of insts commited each cycle
system.switch_cpus.commit.committed_per_cycle::6        52606      0.08%     97.81% # Number of insts commited each cycle
system.switch_cpus.commit.committed_per_cycle::7        35247      0.06%     97.86% # Number of insts commited each cycle
system.switch_cpus.commit.committed_per_cycle::8      1361801      2.14%    100.00% # Number of insts commited each cycle
system.switch_cpus.commit.committed_per_cycle::overflows            0      0.00%    100.00% # Number of insts commited each cycle
system.switch_cpus.commit.committed_per_cycle::min_value            0                       # Number of insts commited each cycle
system.switch_cpus.commit.committed_per_cycle::max_value            8                       # Number of insts commited each cycle
system.switch_cpus.commit.committed_per_cycle::total     63762880                       # Number of insts commited each cycle
system.switch_cpus.commit.fp_insts                  0                       # Number of committed floating point instructions.
system.switch_cpus.commit.function_calls         2082                       # Number of function calls committed.
system.switch_cpus.commit.int_insts          17541011                       # Number of committed integer instructions.
system.switch_cpus.commit.loads               3923977                       # Number of loads committed
system.switch_cpus.commit.membars                   0                       # Number of memory barriers committed
system.switch_cpus.commit.op_class_0::No_OpClass        20038      0.11%      0.11% # Class of committed instruction
system.switch_cpus.commit.op_class_0::IntAlu     13353408     76.03%     76.14% # Class of committed instruction
system.switch_cpus.commit.op_class_0::IntMult          330      0.00%     76.14% # Class of committed instruction
system.switch_cpus.commit.op_class_0::IntDiv            0      0.00%     76.14% # Class of committed instruction
system.switch_cpus.commit.op_class_0::FloatAdd            0      0.00%     76.14% # Class of committed instruction
system.switch_cpus.commit.op_class_0::FloatCmp            0      0.00%     76.14% # Class of committed instruction
system.switch_cpus.commit.op_class_0::FloatCvt            0      0.00%     76.14% # Class of committed instruction
system.switch_cpus.commit.op_class_0::FloatMult            0      0.00%     76.14% # Class of committed instruction
system.switch_cpus.commit.op_class_0::FloatMultAcc            0      0.00%     76.14% # Class of committed instruction
system.switch_cpus.commit.op_class_0::FloatDiv            0      0.00%     76.14% # Class of committed instruction
system.switch_cpus.commit.op_class_0::FloatMisc            0      0.00%     76.14% # Class of committed instruction
system.switch_cpus.commit.op_class_0::FloatSqrt            0      0.00%     76.14% # Class of committed instruction
system.switch_cpus.commit.op_class_0::SimdAdd            0      0.00%     76.14% # Class of committed instruction
system.switch_cpus.commit.op_class_0::SimdAddAcc            0      0.00%     76.14% # Class of committed instruction
system.switch_cpus.commit.op_class_0::SimdAlu            0      0.00%     76.14% # Class of committed instruction
system.switch_cpus.commit.op_class_0::SimdCmp            0      0.00%     76.14% # Class of committed instruction
system.switch_cpus.commit.op_class_0::SimdCvt            0      0.00%     76.14% # Class of committed instruction
system.switch_cpus.commit.op_class_0::SimdMisc            0      0.00%     76.14% # Class of committed instruction
system.switch_cpus.commit.op_class_0::SimdMult            0      0.00%     76.14% # Class of committed instruction
system.switch_cpus.commit.op_class_0::SimdMultAcc            0      0.00%     76.14% # Class of committed instruction
system.switch_cpus.commit.op_class_0::SimdShift            0      0.00%     76.14% # Class of committed instruction
system.switch_cpus.commit.op_class_0::SimdShiftAcc            0      0.00%     76.14% # Class of committed instruction
system.switch_cpus.commit.op_class_0::SimdDiv            0      0.00%     76.14% # Class of committed instruction
system.switch_cpus.commit.op_class_0::SimdSqrt            0      0.00%     76.14% # Class of committed instruction
system.switch_cpus.commit.op_class_0::SimdFloatAdd            0      0.00%     76.14% # Class of committed instruction
system.switch_cpus.commit.op_class_0::SimdFloatAlu            0      0.00%     76.14% # Class of committed instruction
system.switch_cpus.commit.op_class_0::SimdFloatCmp            0      0.00%     76.14% # Class of committed instruction
system.switch_cpus.commit.op_class_0::SimdFloatCvt            0      0.00%     76.14% # Class of committed instruction
system.switch_cpus.commit.op_class_0::SimdFloatDiv            0      0.00%     76.14% # Class of committed instruction
system.switch_cpus.commit.op_class_0::SimdFloatMisc            0      0.00%     76.14% # Class of committed instruction
system.switch_cpus.commit.op_class_0::SimdFloatMult            0      0.00%     76.14% # Class of committed instruction
system.switch_cpus.commit.op_class_0::SimdFloatMultAcc            0      0.00%     76.14% # Class of committed instruction
system.switch_cpus.commit.op_class_0::SimdFloatSqrt            0      0.00%     76.14% # Class of committed instruction
system.switch_cpus.commit.op_class_0::SimdReduceAdd            0      0.00%     76.14% # Class of committed instruction
system.switch_cpus.commit.op_class_0::SimdReduceAlu            0      0.00%     76.14% # Class of committed instruction
system.switch_cpus.commit.op_class_0::SimdReduceCmp            0      0.00%     76.14% # Class of committed instruction
system.switch_cpus.commit.op_class_0::SimdFloatReduceAdd            0      0.00%     76.14% # Class of committed instruction
system.switch_cpus.commit.op_class_0::SimdFloatReduceCmp            0      0.00%     76.14% # Class of committed instruction
system.switch_cpus.commit.op_class_0::SimdAes            0      0.00%     76.14% # Class of committed instruction
system.switch_cpus.commit.op_class_0::SimdAesMix            0      0.00%     76.14% # Class of committed instruction
system.switch_cpus.commit.op_class_0::SimdSha1Hash            0      0.00%     76.14% # Class of committed instruction
system.switch_cpus.commit.op_class_0::SimdSha1Hash2            0      0.00%     76.14% # Class of committed instruction
system.switch_cpus.commit.op_class_0::SimdSha256Hash            0      0.00%     76.14% # Class of committed instruction
system.switch_cpus.commit.op_class_0::SimdSha256Hash2            0      0.00%     76.14% # Class of committed instruction
system.switch_cpus.commit.op_class_0::SimdShaSigma2            0      0.00%     76.14% # Class of committed instruction
system.switch_cpus.commit.op_class_0::SimdShaSigma3            0      0.00%     76.14% # Class of committed instruction
system.switch_cpus.commit.op_class_0::SimdPredAlu            0      0.00%     76.14% # Class of committed instruction
system.switch_cpus.commit.op_class_0::MemRead      3923977     22.34%     98.48% # Class of committed instruction
system.switch_cpus.commit.op_class_0::MemWrite       266471      1.52%    100.00% # Class of committed instruction
system.switch_cpus.commit.op_class_0::FloatMemRead            0      0.00%    100.00% # Class of committed instruction
system.switch_cpus.commit.op_class_0::FloatMemWrite            0      0.00%    100.00% # Class of committed instruction
system.switch_cpus.commit.op_class_0::IprAccess            0      0.00%    100.00% # Class of committed instruction
system.switch_cpus.commit.op_class_0::InstPrefetch            0      0.00%    100.00% # Class of committed instruction
system.switch_cpus.commit.op_class_0::total     17564224                       # Class of committed instruction
system.switch_cpus.commit.refs                4190448                       # Number of memory references committed
system.switch_cpus.commit.swp_count                 0                       # Number of s/w prefetches committed
system.switch_cpus.commit.vec_insts                 0                       # Number of committed Vector instructions.
system.switch_cpus.committedInsts            10000001                       # Number of Instructions Simulated
system.switch_cpus.committedOps              17564224                       # Number of Ops (including micro ops) Simulated
system.switch_cpus.cpi                       6.478962                       # CPI: Cycles Per Instruction
system.switch_cpus.cpi_total                 6.478962                       # CPI: Total CPI of All Threads
system.switch_cpus.decode.BlockedCycles      59807516                       # Number of cycles decode is blocked
system.switch_cpus.decode.DecodedInsts       26509527                       # Number of instructions handled by decode
system.switch_cpus.decode.IdleCycles          1229007                       # Number of cycles decode is idle
system.switch_cpus.decode.RunCycles           1988022                       # Number of cycles decode is running
system.switch_cpus.decode.SquashCycles         175636                       # Number of cycles decode is squashing
system.switch_cpus.decode.UnblockCycles       1585467                       # Number of cycles decode is unblocking
system.switch_cpus.dtb.rdAccesses             4606284                       # TLB accesses on read requests
system.switch_cpus.dtb.rdMisses               1391654                       # TLB misses on read requests
system.switch_cpus.dtb.wrAccesses              388629                       # TLB accesses on write requests
system.switch_cpus.dtb.wrMisses                 10090                       # TLB misses on write requests
system.switch_cpus.fetch.Branches             4272599                       # Number of branches that fetch encountered
system.switch_cpus.fetch.CacheLines            893863                       # Number of cache lines fetched
system.switch_cpus.fetch.Cycles              63617627                       # Number of cycles fetch has run and was not squashing or blocked
system.switch_cpus.fetch.IcacheSquashes         34001                       # Number of outstanding Icache misses that were squashed
system.switch_cpus.fetch.Insts               16728440                       # Number of instructions fetch has processed
system.switch_cpus.fetch.MiscStallCycles           24                       # Number of cycles fetch has spent waiting on interrupts, or bad addresses, or out of MSHRs
system.switch_cpus.fetch.PendingTrapStallCycles          225                       # Number of stall cycles due to pending traps
system.switch_cpus.fetch.SquashCycles          351272                       # Number of cycles fetch has spent squashing
system.switch_cpus.fetch.branchRate          0.065946                       # Number of branch fetches per cycle
system.switch_cpus.fetch.icacheStallCycles       992143                       # Number of cycles fetch is stalled on an Icache miss
system.switch_cpus.fetch.predictedBranches      1916299                       # Number of branches that fetch has predicted taken
system.switch_cpus.fetch.rate                0.258196                       # Number of inst fetches per cycle
system.switch_cpus.fetch.rateDist::samples     64785655                       # Number of instructions fetched each cycle (Total)
system.switch_cpus.fetch.rateDist::mean      0.449333                       # Number of instructions fetched each cycle (Total)
system.switch_cpus.fetch.rateDist::stdev     1.683546                       # Number of instructions fetched each cycle (Total)
system.switch_cpus.fetch.rateDist::underflows            0      0.00%      0.00% # Number of instructions fetched each cycle (Total)
system.switch_cpus.fetch.rateDist::0         59776478     92.27%     92.27% # Number of instructions fetched each cycle (Total)
system.switch_cpus.fetch.rateDist::1           301295      0.47%     92.73% # Number of instructions fetched each cycle (Total)
system.switch_cpus.fetch.rateDist::2           308216      0.48%     93.21% # Number of instructions fetched each cycle (Total)
system.switch_cpus.fetch.rateDist::3           334014      0.52%     93.72% # Number of instructions fetched each cycle (Total)
system.switch_cpus.fetch.rateDist::4           553447      0.85%     94.58% # Number of instructions fetched each cycle (Total)
system.switch_cpus.fetch.rateDist::5           812970      1.25%     95.83% # Number of instructions fetched each cycle (Total)
system.switch_cpus.fetch.rateDist::6           231387      0.36%     96.19% # Number of instructions fetched each cycle (Total)
system.switch_cpus.fetch.rateDist::7           219198      0.34%     96.53% # Number of instructions fetched each cycle (Total)
system.switch_cpus.fetch.rateDist::8          2248650      3.47%    100.00% # Number of instructions fetched each cycle (Total)
system.switch_cpus.fetch.rateDist::overflows            0      0.00%    100.00% # Number of instructions fetched each cycle (Total)
system.switch_cpus.fetch.rateDist::min_value            0                       # Number of instructions fetched each cycle (Total)
system.switch_cpus.fetch.rateDist::max_value            8                       # Number of instructions fetched each cycle (Total)
system.switch_cpus.fetch.rateDist::total     64785655                       # Number of instructions fetched each cycle (Total)
system.switch_cpus.fp_regfile_writes               56                       # number of floating regfile writes
system.switch_cpus.idleCycles                    3973                       # Total number of cycles that the CPU has spent unscheduled due to idling
system.switch_cpus.iew.branchMispredicts       223282                       # Number of branch mispredicts detected at execute
system.switch_cpus.iew.exec_branches          3102052                       # Number of branches executed
system.switch_cpus.iew.exec_nop                     0                       # number of nop insts executed
system.switch_cpus.iew.exec_rate             0.521488                       # Inst execution rate
system.switch_cpus.iew.exec_refs             17114096                       # number of memory reference insts executed
system.switch_cpus.iew.exec_stores             388621                       # Number of stores executed
system.switch_cpus.iew.exec_swp                     0                       # number of swp insts executed
system.switch_cpus.iew.iewBlockCycles        19491618                       # Number of cycles IEW is blocking
system.switch_cpus.iew.iewDispLoadInsts       5108517                       # Number of dispatched load instructions
system.switch_cpus.iew.iewDispNonSpecInsts            0                       # Number of dispatched non-speculative instructions
system.switch_cpus.iew.iewDispSquashedInsts        27260                       # Number of squashed instructions skipped by dispatch
system.switch_cpus.iew.iewDispStoreInsts       580988                       # Number of dispatched store instructions
system.switch_cpus.iew.iewDispatchedInsts     24163842                       # Number of instructions dispatched to IQ
system.switch_cpus.iew.iewExecLoadInsts      16725475                       # Number of load instructions executed
system.switch_cpus.iew.iewExecSquashedInsts       383924                       # Number of squashed instructions skipped in execute
system.switch_cpus.iew.iewExecutedInsts      33786996                       # Number of executed instructions
system.switch_cpus.iew.iewIQFullEvents         256760                       # Number of times the IQ has become full, causing a stall
system.switch_cpus.iew.iewIdleCycles                0                       # Number of cycles IEW is idle
system.switch_cpus.iew.iewLSQFullEvents       9083733                       # Number of times the LSQ has become full, causing a stall
system.switch_cpus.iew.iewSquashCycles         175636                       # Number of cycles IEW is squashing
system.switch_cpus.iew.iewUnblockCycles       9544726                       # Number of cycles IEW is unblocking
system.switch_cpus.iew.lsq.thread0.blockedLoads            0                       # Number of blocked loads due to partial load-store forwarding
system.switch_cpus.iew.lsq.thread0.cacheBlocked      1230464                       # Number of times an access to memory failed due to the cache being blocked
system.switch_cpus.iew.lsq.thread0.forwLoads        45312                       # Number of loads that had data forwarded from stores
system.switch_cpus.iew.lsq.thread0.ignoredResponses          450                       # Number of memory responses ignored because the instruction is squashed
system.switch_cpus.iew.lsq.thread0.invAddrLoads            0                       # Number of loads ignored due to an invalid address
system.switch_cpus.iew.lsq.thread0.invAddrSwpfs            0                       # Number of software prefetches ignored due to an invalid address
system.switch_cpus.iew.lsq.thread0.memOrderViolation         1022                       # Number of memory ordering violations
system.switch_cpus.iew.lsq.thread0.rescheduledLoads            0                       # Number of loads that were rescheduled
system.switch_cpus.iew.lsq.thread0.squashedLoads      1184510                       # Number of loads squashed
system.switch_cpus.iew.lsq.thread0.squashedStores       314517                       # Number of stores squashed
system.switch_cpus.iew.memOrderViolationEvents         1022                       # Number of memory order violations
system.switch_cpus.iew.predictedNotTakenIncorrect       182544                       # Number of branches that were predicted not taken incorrectly
system.switch_cpus.iew.predictedTakenIncorrect        40738                       # Number of branches that were predicted taken incorrectly
system.switch_cpus.iew.wb_consumers          22033991                       # num instructions consuming a value
system.switch_cpus.iew.wb_count              21308315                       # cumulative count of insts written-back
system.switch_cpus.iew.wb_fanout             0.709963                       # average fanout of values written-back
system.switch_cpus.iew.wb_producers          15643310                       # num instructions producing a value
system.switch_cpus.iew.wb_rate               0.328885                       # insts written-back per cycle
system.switch_cpus.iew.wb_sent               21367379                       # cumulative count of insts sent to commit
system.switch_cpus.int_regfile_reads         51882944                       # number of integer regfile reads
system.switch_cpus.int_regfile_writes        17755290                       # number of integer regfile writes
system.switch_cpus.ipc                       0.154346                       # IPC: Instructions Per Cycle
system.switch_cpus.ipc_total                 0.154346                       # IPC: Total IPC of All Threads
system.switch_cpus.iq.FU_type_0::No_OpClass       101532      0.30%      0.30% # Type of FU issued
system.switch_cpus.iq.FU_type_0::IntAlu      16852249     49.32%     49.61% # Type of FU issued
system.switch_cpus.iq.FU_type_0::IntMult          525      0.00%     49.62% # Type of FU issued
system.switch_cpus.iq.FU_type_0::IntDiv             0      0.00%     49.62% # Type of FU issued
system.switch_cpus.iq.FU_type_0::FloatAdd            0      0.00%     49.62% # Type of FU issued
system.switch_cpus.iq.FU_type_0::FloatCmp            0      0.00%     49.62% # Type of FU issued
system.switch_cpus.iq.FU_type_0::FloatCvt            0      0.00%     49.62% # Type of FU issued
system.switch_cpus.iq.FU_type_0::FloatMult            0      0.00%     49.62% # Type of FU issued
system.switch_cpus.iq.FU_type_0::FloatMultAcc            0      0.00%     49.62% # Type of FU issued
system.switch_cpus.iq.FU_type_0::FloatDiv            0      0.00%     49.62% # Type of FU issued
system.switch_cpus.iq.FU_type_0::FloatMisc            0      0.00%     49.62% # Type of FU issued
system.switch_cpus.iq.FU_type_0::FloatSqrt            0      0.00%     49.62% # Type of FU issued
system.switch_cpus.iq.FU_type_0::SimdAdd            0      0.00%     49.62% # Type of FU issued
system.switch_cpus.iq.FU_type_0::SimdAddAcc            0      0.00%     49.62% # Type of FU issued
system.switch_cpus.iq.FU_type_0::SimdAlu            0      0.00%     49.62% # Type of FU issued
system.switch_cpus.iq.FU_type_0::SimdCmp            0      0.00%     49.62% # Type of FU issued
system.switch_cpus.iq.FU_type_0::SimdCvt            0      0.00%     49.62% # Type of FU issued
system.switch_cpus.iq.FU_type_0::SimdMisc            0      0.00%     49.62% # Type of FU issued
system.switch_cpus.iq.FU_type_0::SimdMult            0      0.00%     49.62% # Type of FU issued
system.switch_cpus.iq.FU_type_0::SimdMultAcc            0      0.00%     49.62% # Type of FU issued
system.switch_cpus.iq.FU_type_0::SimdShift            0      0.00%     49.62% # Type of FU issued
system.switch_cpus.iq.FU_type_0::SimdShiftAcc            0      0.00%     49.62% # Type of FU issued
system.switch_cpus.iq.FU_type_0::SimdDiv            0      0.00%     49.62% # Type of FU issued
system.switch_cpus.iq.FU_type_0::SimdSqrt            0      0.00%     49.62% # Type of FU issued
system.switch_cpus.iq.FU_type_0::SimdFloatAdd            0      0.00%     49.62% # Type of FU issued
system.switch_cpus.iq.FU_type_0::SimdFloatAlu            0      0.00%     49.62% # Type of FU issued
system.switch_cpus.iq.FU_type_0::SimdFloatCmp            0      0.00%     49.62% # Type of FU issued
system.switch_cpus.iq.FU_type_0::SimdFloatCvt            0      0.00%     49.62% # Type of FU issued
system.switch_cpus.iq.FU_type_0::SimdFloatDiv            0      0.00%     49.62% # Type of FU issued
system.switch_cpus.iq.FU_type_0::SimdFloatMisc            0      0.00%     49.62% # Type of FU issued
system.switch_cpus.iq.FU_type_0::SimdFloatMult            0      0.00%     49.62% # Type of FU issued
system.switch_cpus.iq.FU_type_0::SimdFloatMultAcc            0      0.00%     49.62% # Type of FU issued
system.switch_cpus.iq.FU_type_0::SimdFloatSqrt            0      0.00%     49.62% # Type of FU issued
system.switch_cpus.iq.FU_type_0::SimdReduceAdd            0      0.00%     49.62% # Type of FU issued
system.switch_cpus.iq.FU_type_0::SimdReduceAlu            0      0.00%     49.62% # Type of FU issued
system.switch_cpus.iq.FU_type_0::SimdReduceCmp            0      0.00%     49.62% # Type of FU issued
system.switch_cpus.iq.FU_type_0::SimdFloatReduceAdd            0      0.00%     49.62% # Type of FU issued
system.switch_cpus.iq.FU_type_0::SimdFloatReduceCmp            0      0.00%     49.62% # Type of FU issued
system.switch_cpus.iq.FU_type_0::SimdAes            0      0.00%     49.62% # Type of FU issued
system.switch_cpus.iq.FU_type_0::SimdAesMix            0      0.00%     49.62% # Type of FU issued
system.switch_cpus.iq.FU_type_0::SimdSha1Hash            0      0.00%     49.62% # Type of FU issued
system.switch_cpus.iq.FU_type_0::SimdSha1Hash2            0      0.00%     49.62% # Type of FU issued
system.switch_cpus.iq.FU_type_0::SimdSha256Hash            0      0.00%     49.62% # Type of FU issued
system.switch_cpus.iq.FU_type_0::SimdSha256Hash2            0      0.00%     49.62% # Type of FU issued
system.switch_cpus.iq.FU_type_0::SimdShaSigma2            0      0.00%     49.62% # Type of FU issued
system.switch_cpus.iq.FU_type_0::SimdShaSigma3            0      0.00%     49.62% # Type of FU issued
system.switch_cpus.iq.FU_type_0::SimdPredAlu            0      0.00%     49.62% # Type of FU issued
system.switch_cpus.iq.FU_type_0::MemRead     16805412     49.18%     98.80% # Type of FU issued
system.switch_cpus.iq.FU_type_0::MemWrite       411204      1.20%    100.00% # Type of FU issued
system.switch_cpus.iq.FU_type_0::FloatMemRead            0      0.00%    100.00% # Type of FU issued
system.switch_cpus.iq.FU_type_0::FloatMemWrite            0      0.00%    100.00% # Type of FU issued
system.switch_cpus.iq.FU_type_0::IprAccess            0      0.00%    100.00% # Type of FU issued
system.switch_cpus.iq.FU_type_0::InstPrefetch            0      0.00%    100.00% # Type of FU issued
system.switch_cpus.iq.FU_type_0::total       34170922                       # Type of FU issued
system.switch_cpus.iq.fp_alu_accesses               0                       # Number of floating point alu accesses
system.switch_cpus.iq.fp_inst_queue_reads            0                       # Number of floating instruction queue reads
system.switch_cpus.iq.fp_inst_queue_wakeup_accesses            0                       # Number of floating instruction queue wakeup accesses
system.switch_cpus.iq.fp_inst_queue_writes            0                       # Number of floating instruction queue writes
system.switch_cpus.iq.fu_busy_cnt             2430019                       # FU busy when requested
system.switch_cpus.iq.fu_busy_rate           0.071114                       # FU busy rate (busy events/executed inst)
system.switch_cpus.iq.fu_full::No_OpClass            0      0.00%      0.00% # attempts to use FU when none available
system.switch_cpus.iq.fu_full::IntAlu           87245      3.59%      3.59% # attempts to use FU when none available
system.switch_cpus.iq.fu_full::IntMult              0      0.00%      3.59% # attempts to use FU when none available
system.switch_cpus.iq.fu_full::IntDiv               0      0.00%      3.59% # attempts to use FU when none available
system.switch_cpus.iq.fu_full::FloatAdd             0      0.00%      3.59% # attempts to use FU when none available
system.switch_cpus.iq.fu_full::FloatCmp             0      0.00%      3.59% # attempts to use FU when none available
system.switch_cpus.iq.fu_full::FloatCvt             0      0.00%      3.59% # attempts to use FU when none available
system.switch_cpus.iq.fu_full::FloatMult            0      0.00%      3.59% # attempts to use FU when none available
system.switch_cpus.iq.fu_full::FloatMultAcc            0      0.00%      3.59% # attempts to use FU when none available
system.switch_cpus.iq.fu_full::FloatDiv             0      0.00%      3.59% # attempts to use FU when none available
system.switch_cpus.iq.fu_full::FloatMisc            0      0.00%      3.59% # attempts to use FU when none available
system.switch_cpus.iq.fu_full::FloatSqrt            0      0.00%      3.59% # attempts to use FU when none available
system.switch_cpus.iq.fu_full::SimdAdd              0      0.00%      3.59% # attempts to use FU when none available
system.switch_cpus.iq.fu_full::SimdAddAcc            0      0.00%      3.59% # attempts to use FU when none available
system.switch_cpus.iq.fu_full::SimdAlu              0      0.00%      3.59% # attempts to use FU when none available
system.switch_cpus.iq.fu_full::SimdCmp              0      0.00%      3.59% # attempts to use FU when none available
system.switch_cpus.iq.fu_full::SimdCvt              0      0.00%      3.59% # attempts to use FU when none available
system.switch_cpus.iq.fu_full::SimdMisc             0      0.00%      3.59% # attempts to use FU when none available
system.switch_cpus.iq.fu_full::SimdMult             0      0.00%      3.59% # attempts to use FU when none available
system.switch_cpus.iq.fu_full::SimdMultAcc            0      0.00%      3.59% # attempts to use FU when none available
system.switch_cpus.iq.fu_full::SimdShift            0      0.00%      3.59% # attempts to use FU when none available
system.switch_cpus.iq.fu_full::SimdShiftAcc            0      0.00%      3.59% # attempts to use FU when none available
system.switch_cpus.iq.fu_full::SimdDiv              0      0.00%      3.59% # attempts to use FU when none available
system.switch_cpus.iq.fu_full::SimdSqrt             0      0.00%      3.59% # attempts to use FU when none available
system.switch_cpus.iq.fu_full::SimdFloatAdd            0      0.00%      3.59% # attempts to use FU when none available
system.switch_cpus.iq.fu_full::SimdFloatAlu            0      0.00%      3.59% # attempts to use FU when none available
system.switch_cpus.iq.fu_full::SimdFloatCmp            0      0.00%      3.59% # attempts to use FU when none available
system.switch_cpus.iq.fu_full::SimdFloatCvt            0      0.00%      3.59% # attempts to use FU when none available
system.switch_cpus.iq.fu_full::SimdFloatDiv            0      0.00%      3.59% # attempts to use FU when none available
system.switch_cpus.iq.fu_full::SimdFloatMisc            0      0.00%      3.59% # attempts to use FU when none available
system.switch_cpus.iq.fu_full::SimdFloatMult            0      0.00%      3.59% # attempts to use FU when none available
system.switch_cpus.iq.fu_full::SimdFloatMultAcc            0      0.00%      3.59% # attempts to use FU when none available
system.switch_cpus.iq.fu_full::SimdFloatSqrt            0      0.00%      3.59% # attempts to use FU when none available
system.switch_cpus.iq.fu_full::SimdReduceAdd            0      0.00%      3.59% # attempts to use FU when none available
system.switch_cpus.iq.fu_full::SimdReduceAlu            0      0.00%      3.59% # attempts to use FU when none available
system.switch_cpus.iq.fu_full::SimdReduceCmp            0      0.00%      3.59% # attempts to use FU when none available
system.switch_cpus.iq.fu_full::SimdFloatReduceAdd            0      0.00%      3.59% # attempts to use FU when none available
system.switch_cpus.iq.fu_full::SimdFloatReduceCmp            0      0.00%      3.59% # attempts to use FU when none available
system.switch_cpus.iq.fu_full::SimdAes              0      0.00%      3.59% # attempts to use FU when none available
system.switch_cpus.iq.fu_full::SimdAesMix            0      0.00%      3.59% # attempts to use FU when none available
system.switch_cpus.iq.fu_full::SimdSha1Hash            0      0.00%      3.59% # attempts to use FU when none available
system.switch_cpus.iq.fu_full::SimdSha1Hash2            0      0.00%      3.59% # attempts to use FU when none available
system.switch_cpus.iq.fu_full::SimdSha256Hash            0      0.00%      3.59% # attempts to use FU when none available
system.switch_cpus.iq.fu_full::SimdSha256Hash2            0      0.00%      3.59% # attempts to use FU when none available
system.switch_cpus.iq.fu_full::SimdShaSigma2            0      0.00%      3.59% # attempts to use FU when none available
system.switch_cpus.iq.fu_full::SimdShaSigma3            0      0.00%      3.59% # attempts to use FU when none available
system.switch_cpus.iq.fu_full::SimdPredAlu            0      0.00%      3.59% # attempts to use FU when none available
system.switch_cpus.iq.fu_full::MemRead        2325111     95.68%     99.27% # attempts to use FU when none available
system.switch_cpus.iq.fu_full::MemWrite         17663      0.73%    100.00% # attempts to use FU when none available
system.switch_cpus.iq.fu_full::FloatMemRead            0      0.00%    100.00% # attempts to use FU when none available
system.switch_cpus.iq.fu_full::FloatMemWrite            0      0.00%    100.00% # attempts to use FU when none available
system.switch_cpus.iq.fu_full::IprAccess            0      0.00%    100.00% # attempts to use FU when none available
system.switch_cpus.iq.fu_full::InstPrefetch            0      0.00%    100.00% # attempts to use FU when none available
system.switch_cpus.iq.int_alu_accesses       36499409                       # Number of integer alu accesses
system.switch_cpus.iq.int_inst_queue_reads    135691071                       # Number of integer instruction queue reads
system.switch_cpus.iq.int_inst_queue_wakeup_accesses     21308315                       # Number of integer instruction queue wakeup accesses
system.switch_cpus.iq.int_inst_queue_writes     30763908                       # Number of integer instruction queue writes
system.switch_cpus.iq.iqInstsAdded           24163842                       # Number of instructions added to the IQ (excludes non-spec)
system.switch_cpus.iq.iqInstsIssued          34170922                       # Number of instructions issued
system.switch_cpus.iq.iqSquashedInstsExamined      6599496                       # Number of squashed instructions iterated over during squash; mainly for profiling
system.switch_cpus.iq.iqSquashedInstsIssued       133555                       # Number of squashed instructions issued
system.switch_cpus.iq.iqSquashedOperandsExamined      9848790                       # Number of squashed operands that are examined and possibly removed from graph
system.switch_cpus.iq.issued_per_cycle::samples     64785655                       # Number of insts issued each cycle
system.switch_cpus.iq.issued_per_cycle::mean     0.527446                       # Number of insts issued each cycle
system.switch_cpus.iq.issued_per_cycle::stdev     1.370584                       # Number of insts issued each cycle
system.switch_cpus.iq.issued_per_cycle::underflows            0      0.00%      0.00% # Number of insts issued each cycle
system.switch_cpus.iq.issued_per_cycle::0     53296782     82.27%     82.27% # Number of insts issued each cycle
system.switch_cpus.iq.issued_per_cycle::1      3653319      5.64%     87.91% # Number of insts issued each cycle
system.switch_cpus.iq.issued_per_cycle::2      1776815      2.74%     90.65% # Number of insts issued each cycle
system.switch_cpus.iq.issued_per_cycle::3      1370453      2.12%     92.76% # Number of insts issued each cycle
system.switch_cpus.iq.issued_per_cycle::4      2291812      3.54%     96.30% # Number of insts issued each cycle
system.switch_cpus.iq.issued_per_cycle::5      1202876      1.86%     98.16% # Number of insts issued each cycle
system.switch_cpus.iq.issued_per_cycle::6       832215      1.28%     99.44% # Number of insts issued each cycle
system.switch_cpus.iq.issued_per_cycle::7       213368      0.33%     99.77% # Number of insts issued each cycle
system.switch_cpus.iq.issued_per_cycle::8       148015      0.23%    100.00% # Number of insts issued each cycle
system.switch_cpus.iq.issued_per_cycle::overflows            0      0.00%    100.00% # Number of insts issued each cycle
system.switch_cpus.iq.issued_per_cycle::min_value            0                       # Number of insts issued each cycle
system.switch_cpus.iq.issued_per_cycle::max_value            8                       # Number of insts issued each cycle
system.switch_cpus.iq.issued_per_cycle::total     64785655                       # Number of insts issued each cycle
system.switch_cpus.iq.rate                   0.527413                       # Inst issue rate
system.switch_cpus.iq.vec_alu_accesses              0                       # Number of vector alu accesses
system.switch_cpus.iq.vec_inst_queue_reads            0                       # Number of vector instruction queue reads
system.switch_cpus.iq.vec_inst_queue_wakeup_accesses            0                       # Number of vector instruction queue wakeup accesses
system.switch_cpus.iq.vec_inst_queue_writes            0                       # Number of vector instruction queue writes
system.switch_cpus.itb.rdAccesses                   0                       # TLB accesses on read requests
system.switch_cpus.itb.rdMisses                     0                       # TLB misses on read requests
system.switch_cpus.itb.wrAccesses              893922                       # TLB accesses on write requests
system.switch_cpus.itb.wrMisses                    62                       # TLB misses on write requests
system.switch_cpus.memDep0.conflictingLoads       199297                       # Number of conflicting loads.
system.switch_cpus.memDep0.conflictingStores       175009                       # Number of conflicting stores.
system.switch_cpus.memDep0.insertedLoads      5108517                       # Number of loads inserted to the mem dependence unit.
system.switch_cpus.memDep0.insertedStores       580988                       # Number of stores inserted to the mem dependence unit.
system.switch_cpus.misc_regfile_reads        23793390                       # number of misc regfile reads
system.switch_cpus.misc_regfile_writes              1                       # number of misc regfile writes
system.switch_cpus.numCycles                 64789628                       # number of cpu cycles simulated
system.switch_cpus.numWorkItemsCompleted            0                       # number of work items this cpu completed
system.switch_cpus.numWorkItemsStarted              0                       # number of work items this cpu started
system.switch_cpus.rename.BlockCycles        33313516                       # Number of cycles rename is blocking
system.switch_cpus.rename.CommittedMaps      22614523                       # Number of HB maps that are committed
system.switch_cpus.rename.IQFullEvents        8872001                       # Number of times rename has blocked due to IQ full
system.switch_cpus.rename.IdleCycles          1780439                       # Number of cycles rename is idle
system.switch_cpus.rename.LQFullEvents       23777236                       # Number of times rename has blocked due to LQ full
system.switch_cpus.rename.ROBFullEvents        129948                       # Number of times rename has blocked due to ROB full
system.switch_cpus.rename.RenameLookups      67734236                       # Number of register rename lookups that rename has made
system.switch_cpus.rename.RenamedInsts       25605014                       # Number of instructions processed by rename
system.switch_cpus.rename.RenamedOperands     32206539                       # Number of destination operands rename has renamed
system.switch_cpus.rename.RunCycles           2813602                       # Number of cycles rename is running
system.switch_cpus.rename.SQFullEvents          59760                       # Number of times rename has blocked due to SQ full
system.switch_cpus.rename.SquashCycles         175636                       # Number of cycles rename is squashing
system.switch_cpus.rename.UnblockCycles      26701010                       # Number of cycles rename is unblocking
system.switch_cpus.rename.UndoneMaps          9591844                       # Number of HB maps that are undone due to squashing
system.switch_cpus.rename.int_rename_lookups     34617112                       # Number of integer rename lookups
system.switch_cpus.rename.serializeStallCycles         1445                       # count of cycles rename stalled for serializing inst
system.switch_cpus.rename.serializingInsts         2141                       # count of serializing insts renamed
system.switch_cpus.rename.skidInsts           9289733                       # count of insts added to the skid buffer
system.switch_cpus.rename.tempSerializingInsts         2125                       # count of temporary serializing insts renamed
system.switch_cpus.rob.rob_reads             86571977                       # The number of ROB reads
system.switch_cpus.rob.rob_writes            49374659                       # The number of ROB writes
system.switch_cpus.timesIdled                      49                       # Number of times that the entire CPU went into an idle state and unscheduled itself
system.tol2bus.snoop_filter.hit_multi_requests            0                       # Number of requests hitting in the snoop filter with multiple (>1) holders of the requested data.
system.tol2bus.snoop_filter.hit_multi_snoops            0                       # Number of snoops hitting in the snoop filter with multiple (>1) holders of the requested data.
system.tol2bus.snoop_filter.hit_single_requests      1417486                       # Number of requests hitting in the snoop filter with a single holder of the requested data.
system.tol2bus.snoop_filter.hit_single_snoops       914025                       # Number of snoops hitting in the snoop filter with a single holder of the requested data.
system.tol2bus.snoop_filter.tot_requests      2836062                       # Total number of requests made to the snoop filter.
system.tol2bus.snoop_filter.tot_snoops         914025                       # Total number of snoops made to the snoop filter.
system.membus.pwrStateResidencyTicks::UNDEFINED 190182929094000                       # Cumulative time (in ticks) in various power states
system.membus.trans_dist::ReadResp             985150                       # Transaction distribution
system.membus.trans_dist::WritebackDirty        45805                       # Transaction distribution
system.membus.trans_dist::CleanEvict           940657                       # Transaction distribution
system.membus.trans_dist::ReadExReq              3863                       # Transaction distribution
system.membus.trans_dist::ReadExResp             3863                       # Transaction distribution
system.membus.trans_dist::ReadSharedReq        985153                       # Transaction distribution
system.membus.pkt_count_system.l2.mem_side::system.mem_ctrls.port      2964491                       # Packet count per connected master and slave (bytes)
system.membus.pkt_count_system.l2.mem_side::total      2964491                       # Packet count per connected master and slave (bytes)
system.membus.pkt_count::total                2964491                       # Packet count per connected master and slave (bytes)
system.membus.pkt_size_system.l2.mem_side::system.mem_ctrls.port     66228352                       # Cumulative packet size per connected master and slave (bytes)
system.membus.pkt_size_system.l2.mem_side::total     66228352                       # Cumulative packet size per connected master and slave (bytes)
system.membus.pkt_size::total                66228352                       # Cumulative packet size per connected master and slave (bytes)
system.membus.snoops                                0                       # Total snoops (count)
system.membus.snoopTraffic                          0                       # Total snoop traffic (bytes)
system.membus.snoop_fanout::samples            989016                       # Request fanout histogram
system.membus.snoop_fanout::mean                    0                       # Request fanout histogram
system.membus.snoop_fanout::stdev                   0                       # Request fanout histogram
system.membus.snoop_fanout::underflows              0      0.00%      0.00% # Request fanout histogram
system.membus.snoop_fanout::0                  989016    100.00%    100.00% # Request fanout histogram
system.membus.snoop_fanout::1                       0      0.00%    100.00% # Request fanout histogram
system.membus.snoop_fanout::overflows               0      0.00%    100.00% # Request fanout histogram
system.membus.snoop_fanout::min_value               0                       # Request fanout histogram
system.membus.snoop_fanout::max_value               0                       # Request fanout histogram
system.membus.snoop_fanout::total              989016                       # Request fanout histogram
system.membus.reqLayer2.occupancy          2328293000                       # Layer occupancy (ticks)
system.membus.reqLayer2.utilization               7.2                       # Layer utilization (%)
system.membus.respLayer1.occupancy         5546563500                       # Layer occupancy (ticks)
system.membus.respLayer1.utilization             17.1                       # Layer utilization (%)
system.switch_cpus.pwrStateResidencyTicks::OFF  32394825250                       # Cumulative time (in ticks) in various power states
system.switch_cpus.dtb.walker.pwrStateResidencyTicks::UNDEFINED 190182929094000                       # Cumulative time (in ticks) in various power states
system.switch_cpus.itb.walker.pwrStateResidencyTicks::UNDEFINED 190182929094000                       # Cumulative time (in ticks) in various power states
system.tol2bus.pwrStateResidencyTicks::UNDEFINED 190182929094000                       # Cumulative time (in ticks) in various power states
system.tol2bus.trans_dist::ReadResp           1410621                       # Transaction distribution
system.tol2bus.trans_dist::WritebackDirty       247207                       # Transaction distribution
system.tol2bus.trans_dist::CleanEvict         2199574                       # Transaction distribution
system.tol2bus.trans_dist::ReadExReq             7951                       # Transaction distribution
system.tol2bus.trans_dist::ReadExResp            7951                       # Transaction distribution
system.tol2bus.trans_dist::ReadCleanReq            62                       # Transaction distribution
system.tol2bus.trans_dist::ReadSharedReq      1410563                       # Transaction distribution
system.tol2bus.pkt_count_system.cpu.icache.mem_side::system.l2.cpu_side          124                       # Packet count per connected master and slave (bytes)
system.tol2bus.pkt_count_system.cpu.dcache.mem_side::system.l2.cpu_side      4254510                       # Packet count per connected master and slave (bytes)
system.tol2bus.pkt_count::total               4254634                       # Packet count per connected master and slave (bytes)
system.tol2bus.pkt_size_system.cpu.icache.mem_side::system.l2.cpu_side         3968                       # Cumulative packet size per connected master and slave (bytes)
system.tol2bus.pkt_size_system.cpu.dcache.mem_side::system.l2.cpu_side    103674368                       # Cumulative packet size per connected master and slave (bytes)
system.tol2bus.pkt_size::total              103678336                       # Cumulative packet size per connected master and slave (bytes)
system.tol2bus.snoops                         1029295                       # Total snoops (count)
system.tol2bus.snoopTraffic                   2931520                       # Total snoop traffic (bytes)
system.tol2bus.snoop_fanout::samples          2447871                       # Request fanout histogram
system.tol2bus.snoop_fanout::mean            0.373396                       # Request fanout histogram
system.tol2bus.snoop_fanout::stdev           0.483706                       # Request fanout histogram
system.tol2bus.snoop_fanout::underflows             0      0.00%      0.00% # Request fanout histogram
system.tol2bus.snoop_fanout::0                1533846     62.66%     62.66% # Request fanout histogram
system.tol2bus.snoop_fanout::1                 914025     37.34%    100.00% # Request fanout histogram
system.tol2bus.snoop_fanout::2                      0      0.00%    100.00% # Request fanout histogram
system.tol2bus.snoop_fanout::3                      0      0.00%    100.00% # Request fanout histogram
system.tol2bus.snoop_fanout::4                      0      0.00%    100.00% # Request fanout histogram
system.tol2bus.snoop_fanout::overflows              0      0.00%    100.00% # Request fanout histogram
system.tol2bus.snoop_fanout::min_value              0                       # Request fanout histogram
system.tol2bus.snoop_fanout::max_value              1                       # Request fanout histogram
system.tol2bus.snoop_fanout::total            2447871                       # Request fanout histogram
system.tol2bus.reqLayer0.occupancy         1619431500                       # Layer occupancy (ticks)
system.tol2bus.reqLayer0.utilization              5.0                       # Layer utilization (%)
system.tol2bus.respLayer1.occupancy        2127762000                       # Layer occupancy (ticks)
system.tol2bus.respLayer1.utilization             6.6                       # Layer utilization (%)
system.tol2bus.respLayer0.occupancy             91500                       # Layer occupancy (ticks)
system.tol2bus.respLayer0.utilization             0.0                       # Layer utilization (%)
system.voltage_domain.voltage                       1                       # Voltage in Volts
system.clk_domain.clock                          1000                       # Clock period in ticks
system.l2.pwrStateResidencyTicks::UNDEFINED 190182929094000                       # Cumulative time (in ticks) in various power states
system.l2.demand_hits::.switch_cpus.data       429559                       # number of demand (read+write) hits
system.l2.demand_hits::total                   429559                       # number of demand (read+write) hits
system.l2.overall_hits::.switch_cpus.data       429559                       # number of overall hits
system.l2.overall_hits::total                  429559                       # number of overall hits
system.l2.demand_misses::.cpu.inst                  1                       # number of demand (read+write) misses
system.l2.demand_misses::.cpu.data                  2                       # number of demand (read+write) misses
system.l2.demand_misses::.switch_cpus.inst           61                       # number of demand (read+write) misses
system.l2.demand_misses::.switch_cpus.data       988953                       # number of demand (read+write) misses
system.l2.demand_misses::total                 989017                       # number of demand (read+write) misses
system.l2.overall_misses::.cpu.inst                 1                       # number of overall misses
system.l2.overall_misses::.cpu.data                 2                       # number of overall misses
system.l2.overall_misses::.switch_cpus.inst           61                       # number of overall misses
system.l2.overall_misses::.switch_cpus.data       988953                       # number of overall misses
system.l2.overall_misses::total                989017                       # number of overall misses
system.l2.demand_miss_latency::.switch_cpus.inst      4812000                       # number of demand (read+write) miss cycles
system.l2.demand_miss_latency::.switch_cpus.data 100349449500                       # number of demand (read+write) miss cycles
system.l2.demand_miss_latency::total     100354261500                       # number of demand (read+write) miss cycles
system.l2.overall_miss_latency::.switch_cpus.inst      4812000                       # number of overall miss cycles
system.l2.overall_miss_latency::.switch_cpus.data 100349449500                       # number of overall miss cycles
system.l2.overall_miss_latency::total    100354261500                       # number of overall miss cycles
system.l2.demand_accesses::.cpu.inst                1                       # number of demand (read+write) accesses
system.l2.demand_accesses::.cpu.data                2                       # number of demand (read+write) accesses
system.l2.demand_accesses::.switch_cpus.inst           61                       # number of demand (read+write) accesses
system.l2.demand_accesses::.switch_cpus.data      1418512                       # number of demand (read+write) accesses
system.l2.demand_accesses::total              1418576                       # number of demand (read+write) accesses
system.l2.overall_accesses::.cpu.inst               1                       # number of overall (read+write) accesses
system.l2.overall_accesses::.cpu.data               2                       # number of overall (read+write) accesses
system.l2.overall_accesses::.switch_cpus.inst           61                       # number of overall (read+write) accesses
system.l2.overall_accesses::.switch_cpus.data      1418512                       # number of overall (read+write) accesses
system.l2.overall_accesses::total             1418576                       # number of overall (read+write) accesses
system.l2.demand_miss_rate::.cpu.inst               1                       # miss rate for demand accesses
system.l2.demand_miss_rate::.cpu.data               1                       # miss rate for demand accesses
system.l2.demand_miss_rate::.switch_cpus.inst            1                       # miss rate for demand accesses
system.l2.demand_miss_rate::.switch_cpus.data     0.697176                       # miss rate for demand accesses
system.l2.demand_miss_rate::total            0.697190                       # miss rate for demand accesses
system.l2.overall_miss_rate::.cpu.inst              1                       # miss rate for overall accesses
system.l2.overall_miss_rate::.cpu.data              1                       # miss rate for overall accesses
system.l2.overall_miss_rate::.switch_cpus.inst            1                       # miss rate for overall accesses
system.l2.overall_miss_rate::.switch_cpus.data     0.697176                       # miss rate for overall accesses
system.l2.overall_miss_rate::total           0.697190                       # miss rate for overall accesses
system.l2.demand_avg_miss_latency::.switch_cpus.inst 78885.245902                       # average overall miss latency
system.l2.demand_avg_miss_latency::.switch_cpus.data 101470.392931                       # average overall miss latency
system.l2.demand_avg_miss_latency::total 101468.692146                       # average overall miss latency
system.l2.overall_avg_miss_latency::.switch_cpus.inst 78885.245902                       # average overall miss latency
system.l2.overall_avg_miss_latency::.switch_cpus.data 101470.392931                       # average overall miss latency
system.l2.overall_avg_miss_latency::total 101468.692146                       # average overall miss latency
system.l2.blocked_cycles::no_mshrs                  0                       # number of cycles access was blocked
system.l2.blocked_cycles::no_targets                0                       # number of cycles access was blocked
system.l2.blocked::no_mshrs                         0                       # number of cycles access was blocked
system.l2.blocked::no_targets                       0                       # number of cycles access was blocked
system.l2.avg_blocked_cycles::no_mshrs            nan                       # average number of cycles each access was blocked
system.l2.avg_blocked_cycles::no_targets          nan                       # average number of cycles each access was blocked
system.l2.writebacks::.writebacks               45805                       # number of writebacks
system.l2.writebacks::total                     45805                       # number of writebacks
system.l2.demand_mshr_misses::.switch_cpus.inst           61                       # number of demand (read+write) MSHR misses
system.l2.demand_mshr_misses::.switch_cpus.data       988953                       # number of demand (read+write) MSHR misses
system.l2.demand_mshr_misses::total            989014                       # number of demand (read+write) MSHR misses
system.l2.overall_mshr_misses::.switch_cpus.inst           61                       # number of overall MSHR misses
system.l2.overall_mshr_misses::.switch_cpus.data       988953                       # number of overall MSHR misses
system.l2.overall_mshr_misses::total           989014                       # number of overall MSHR misses
system.l2.demand_mshr_miss_latency::.switch_cpus.inst      4202000                       # number of demand (read+write) MSHR miss cycles
system.l2.demand_mshr_miss_latency::.switch_cpus.data  90459959500                       # number of demand (read+write) MSHR miss cycles
system.l2.demand_mshr_miss_latency::total  90464161500                       # number of demand (read+write) MSHR miss cycles
system.l2.overall_mshr_miss_latency::.switch_cpus.inst      4202000                       # number of overall MSHR miss cycles
system.l2.overall_mshr_miss_latency::.switch_cpus.data  90459959500                       # number of overall MSHR miss cycles
system.l2.overall_mshr_miss_latency::total  90464161500                       # number of overall MSHR miss cycles
system.l2.demand_mshr_miss_rate::.switch_cpus.inst            1                       # mshr miss rate for demand accesses
system.l2.demand_mshr_miss_rate::.switch_cpus.data     0.697176                       # mshr miss rate for demand accesses
system.l2.demand_mshr_miss_rate::total       0.697188                       # mshr miss rate for demand accesses
system.l2.overall_mshr_miss_rate::.switch_cpus.inst            1                       # mshr miss rate for overall accesses
system.l2.overall_mshr_miss_rate::.switch_cpus.data     0.697176                       # mshr miss rate for overall accesses
system.l2.overall_mshr_miss_rate::total      0.697188                       # mshr miss rate for overall accesses
system.l2.demand_avg_mshr_miss_latency::.switch_cpus.inst 68885.245902                       # average overall mshr miss latency
system.l2.demand_avg_mshr_miss_latency::.switch_cpus.data 91470.433378                       # average overall mshr miss latency
system.l2.demand_avg_mshr_miss_latency::total 91469.040378                       # average overall mshr miss latency
system.l2.overall_avg_mshr_miss_latency::.switch_cpus.inst 68885.245902                       # average overall mshr miss latency
system.l2.overall_avg_mshr_miss_latency::.switch_cpus.data 91470.433378                       # average overall mshr miss latency
system.l2.overall_avg_mshr_miss_latency::total 91469.040378                       # average overall mshr miss latency
system.l2.replacements                        1029295                       # number of replacements
system.l2.WritebackDirty_hits::.writebacks       201402                       # number of WritebackDirty hits
system.l2.WritebackDirty_hits::total           201402                       # number of WritebackDirty hits
system.l2.WritebackDirty_accesses::.writebacks       201402                       # number of WritebackDirty accesses(hits+misses)
system.l2.WritebackDirty_accesses::total       201402                       # number of WritebackDirty accesses(hits+misses)
system.l2.CleanEvict_mshr_misses::.writebacks       871193                       # number of CleanEvict MSHR misses
system.l2.CleanEvict_mshr_misses::total        871193                       # number of CleanEvict MSHR misses
system.l2.CleanEvict_mshr_miss_rate::.writebacks          inf                       # mshr miss rate for CleanEvict accesses
system.l2.CleanEvict_mshr_miss_rate::total          inf                       # mshr miss rate for CleanEvict accesses
system.l2.ReadExReq_hits::.switch_cpus.data         4088                       # number of ReadExReq hits
system.l2.ReadExReq_hits::total                  4088                       # number of ReadExReq hits
system.l2.ReadExReq_misses::.switch_cpus.data         3863                       # number of ReadExReq misses
system.l2.ReadExReq_misses::total                3863                       # number of ReadExReq misses
system.l2.ReadExReq_miss_latency::.switch_cpus.data    334191000                       # number of ReadExReq miss cycles
system.l2.ReadExReq_miss_latency::total     334191000                       # number of ReadExReq miss cycles
system.l2.ReadExReq_accesses::.switch_cpus.data         7951                       # number of ReadExReq accesses(hits+misses)
system.l2.ReadExReq_accesses::total              7951                       # number of ReadExReq accesses(hits+misses)
system.l2.ReadExReq_miss_rate::.switch_cpus.data     0.485851                       # miss rate for ReadExReq accesses
system.l2.ReadExReq_miss_rate::total         0.485851                       # miss rate for ReadExReq accesses
system.l2.ReadExReq_avg_miss_latency::.switch_cpus.data 86510.742946                       # average ReadExReq miss latency
system.l2.ReadExReq_avg_miss_latency::total 86510.742946                       # average ReadExReq miss latency
system.l2.ReadExReq_mshr_misses::.switch_cpus.data         3863                       # number of ReadExReq MSHR misses
system.l2.ReadExReq_mshr_misses::total           3863                       # number of ReadExReq MSHR misses
system.l2.ReadExReq_mshr_miss_latency::.switch_cpus.data    295561000                       # number of ReadExReq MSHR miss cycles
system.l2.ReadExReq_mshr_miss_latency::total    295561000                       # number of ReadExReq MSHR miss cycles
system.l2.ReadExReq_mshr_miss_rate::.switch_cpus.data     0.485851                       # mshr miss rate for ReadExReq accesses
system.l2.ReadExReq_mshr_miss_rate::total     0.485851                       # mshr miss rate for ReadExReq accesses
system.l2.ReadExReq_avg_mshr_miss_latency::.switch_cpus.data 76510.742946                       # average ReadExReq mshr miss latency
system.l2.ReadExReq_avg_mshr_miss_latency::total 76510.742946                       # average ReadExReq mshr miss latency
system.l2.ReadCleanReq_misses::.cpu.inst            1                       # number of ReadCleanReq misses
system.l2.ReadCleanReq_misses::.switch_cpus.inst           61                       # number of ReadCleanReq misses
system.l2.ReadCleanReq_misses::total               62                       # number of ReadCleanReq misses
system.l2.ReadCleanReq_miss_latency::.switch_cpus.inst      4812000                       # number of ReadCleanReq miss cycles
system.l2.ReadCleanReq_miss_latency::total      4812000                       # number of ReadCleanReq miss cycles
system.l2.ReadCleanReq_accesses::.cpu.inst            1                       # number of ReadCleanReq accesses(hits+misses)
system.l2.ReadCleanReq_accesses::.switch_cpus.inst           61                       # number of ReadCleanReq accesses(hits+misses)
system.l2.ReadCleanReq_accesses::total             62                       # number of ReadCleanReq accesses(hits+misses)
system.l2.ReadCleanReq_miss_rate::.cpu.inst            1                       # miss rate for ReadCleanReq accesses
system.l2.ReadCleanReq_miss_rate::.switch_cpus.inst            1                       # miss rate for ReadCleanReq accesses
system.l2.ReadCleanReq_miss_rate::total             1                       # miss rate for ReadCleanReq accesses
system.l2.ReadCleanReq_avg_miss_latency::.switch_cpus.inst 78885.245902                       # average ReadCleanReq miss latency
system.l2.ReadCleanReq_avg_miss_latency::total 77612.903226                       # average ReadCleanReq miss latency
system.l2.ReadCleanReq_mshr_misses::.switch_cpus.inst           61                       # number of ReadCleanReq MSHR misses
system.l2.ReadCleanReq_mshr_misses::total           61                       # number of ReadCleanReq MSHR misses
system.l2.ReadCleanReq_mshr_miss_latency::.switch_cpus.inst      4202000                       # number of ReadCleanReq MSHR miss cycles
system.l2.ReadCleanReq_mshr_miss_latency::total      4202000                       # number of ReadCleanReq MSHR miss cycles
system.l2.ReadCleanReq_mshr_miss_rate::.switch_cpus.inst            1                       # mshr miss rate for ReadCleanReq accesses
system.l2.ReadCleanReq_mshr_miss_rate::total     0.983871                       # mshr miss rate for ReadCleanReq accesses
system.l2.ReadCleanReq_avg_mshr_miss_latency::.switch_cpus.inst 68885.245902                       # average ReadCleanReq mshr miss latency
system.l2.ReadCleanReq_avg_mshr_miss_latency::total 68885.245902                       # average ReadCleanReq mshr miss latency
system.l2.ReadSharedReq_hits::.switch_cpus.data       425471                       # number of ReadSharedReq hits
system.l2.ReadSharedReq_hits::total            425471                       # number of ReadSharedReq hits
system.l2.ReadSharedReq_misses::.cpu.data            2                       # number of ReadSharedReq misses
[...]
system.cpu.icache.tags.age_task_id_blocks_1024::4           62                       # Occupied blocks per task id
system.cpu.icache.tags.occ_task_id_percent::1024     0.121094                       # Percentage of cache occupancy per task id
system.cpu.icache.tags.tag_accesses           2733984                       # Number of tag accesses
system.cpu.icache.tags.data_accesses          2733984                       # Number of data accesses
system.cpu.dtb.walker.pwrStateResidencyTicks::UNDEFINED 190282162469000                       # Cumulative time (in ticks) in various power states
system.cpu.interrupts.clk_domain.clock           8000                       # Clock period in ticks
system.cpu.itb_walker_cache.pwrStateResidencyTicks::UNDEFINED 190282162469000                       # Cumulative time (in ticks) in various power states
system.cpu.itb_walker_cache.blocked_cycles::no_mshrs            0                       # number of cycles access was blocked
system.cpu.itb_walker_cache.blocked_cycles::no_targets            0                       # number of cycles access was blocked
system.cpu.itb_walker_cache.blocked::no_mshrs            0                       # number of cycles access was blocked
system.cpu.itb_walker_cache.blocked::no_targets            0                       # number of cycles access was blocked
system.cpu.itb_walker_cache.avg_blocked_cycles::no_mshrs          nan                       # average number of cycles each access was blocked
system.cpu.itb_walker_cache.avg_blocked_cycles::no_targets          nan                       # average number of cycles each access was blocked
system.cpu.itb_walker_cache.replacements            0                       # number of replacements
system.cpu.itb_walker_cache.tags.pwrStateResidencyTicks::UNDEFINED 190282162469000                       # Cumulative time (in ticks) in various power states
system.cpu.itb_walker_cache.tags.tagsinuse            0                       # Cycle average of tags in use
system.cpu.itb_walker_cache.tags.total_refs            0                       # Total number of references to valid blocks.
system.cpu.itb_walker_cache.tags.sampled_refs            0                       # Sample count of references to valid blocks.
system.cpu.itb_walker_cache.tags.avg_refs          nan                       # Average number of references to valid blocks.
system.cpu.itb_walker_cache.tags.warmup_cycle            0                       # Cycle when the warmup percentage was hit.
system.cpu.itb_walker_cache.tags.tag_accesses            0                       # Number of tag accesses
system.cpu.itb_walker_cache.tags.data_accesses            0                       # Number of data accesses
system.cpu.itb.walker.pwrStateResidencyTicks::UNDEFINED 190282162469000                       # Cumulative time (in ticks) in various power states
system.cpu.dtb_walker_cache.pwrStateResidencyTicks::UNDEFINED 190282162469000                       # Cumulative time (in ticks) in various power states
system.cpu.dtb_walker_cache.blocked_cycles::no_mshrs            0                       # number of cycles access was blocked
system.cpu.dtb_walker_cache.blocked_cycles::no_targets            0                       # number of cycles access was blocked
system.cpu.dtb_walker_cache.blocked::no_mshrs            0                       # number of cycles access was blocked
system.cpu.dtb_walker_cache.blocked::no_targets            0                       # number of cycles access was blocked
system.cpu.dtb_walker_cache.avg_blocked_cycles::no_mshrs          nan                       # average number of cycles each access was blocked
system.cpu.dtb_walker_cache.avg_blocked_cycles::no_targets          nan                       # average number of cycles each access was blocked
system.cpu.dtb_walker_cache.replacements            0                       # number of replacements
system.cpu.dtb_walker_cache.tags.pwrStateResidencyTicks::UNDEFINED 190282162469000                       # Cumulative time (in ticks) in various power states
system.cpu.dtb_walker_cache.tags.tagsinuse            0                       # Cycle average of tags in use
system.cpu.dtb_walker_cache.tags.total_refs            0                       # Total number of references to valid blocks.
system.cpu.dtb_walker_cache.tags.sampled_refs            0                       # Sample count of references to valid blocks.
system.cpu.dtb_walker_cache.tags.avg_refs          nan                       # Average number of references to valid blocks.
system.cpu.dtb_walker_cache.tags.warmup_cycle            0                       # Cycle when the warmup percentage was hit.
system.cpu.dtb_walker_cache.tags.tag_accesses            0                       # Number of tag accesses
system.cpu.dtb_walker_cache.tags.data_accesses            0                       # Number of data accesses
system.cpu.dcache.pwrStateResidencyTicks::UNDEFINED 190282162469000                       # Cumulative time (in ticks) in various power states
system.cpu.dcache.demand_hits::.switch_cpus.data      4513406                       # number of demand (read+write) hits
system.cpu.dcache.demand_hits::total          4513406                       # number of demand (read+write) hits
system.cpu.dcache.overall_hits::.switch_cpus.data      4513406                       # number of overall hits
system.cpu.dcache.overall_hits::total         4513406                       # number of overall hits
system.cpu.dcache.demand_misses::.cpu.data            2                       # number of demand (read+write) misses
system.cpu.dcache.demand_misses::.switch_cpus.data     13341674                       # number of demand (read+write) misses
system.cpu.dcache.demand_misses::total       13341676                       # number of demand (read+write) misses
system.cpu.dcache.overall_misses::.cpu.data            2                       # number of overall misses
system.cpu.dcache.overall_misses::.switch_cpus.data     13341674                       # number of overall misses
system.cpu.dcache.overall_misses::total      13341676                       # number of overall misses
system.cpu.dcache.demand_miss_latency::.switch_cpus.data 944989719969                       # number of demand (read+write) miss cycles
system.cpu.dcache.demand_miss_latency::total 944989719969                       # number of demand (read+write) miss cycles
system.cpu.dcache.overall_miss_latency::.switch_cpus.data 944989719969                       # number of overall miss cycles
system.cpu.dcache.overall_miss_latency::total 944989719969                       # number of overall miss cycles
system.cpu.dcache.demand_accesses::.cpu.data            2                       # number of demand (read+write) accesses
system.cpu.dcache.demand_accesses::.switch_cpus.data     17855080                       # number of demand (read+write) accesses
system.cpu.dcache.demand_accesses::total     17855082                       # number of demand (read+write) accesses
system.cpu.dcache.overall_accesses::.cpu.data            2                       # number of overall (read+write) accesses
system.cpu.dcache.overall_accesses::.switch_cpus.data     17855080                       # number of overall (read+write) accesses
system.cpu.dcache.overall_accesses::total     17855082                       # number of overall (read+write) accesses
system.cpu.dcache.demand_miss_rate::.cpu.data            1                       # miss rate for demand accesses
system.cpu.dcache.demand_miss_rate::.switch_cpus.data     0.747220                       # miss rate for demand accesses
system.cpu.dcache.demand_miss_rate::total     0.747220                       # miss rate for demand accesses
system.cpu.dcache.overall_miss_rate::.cpu.data            1                       # miss rate for overall accesses
system.cpu.dcache.overall_miss_rate::.switch_cpus.data     0.747220                       # miss rate for overall accesses
system.cpu.dcache.overall_miss_rate::total     0.747220                       # miss rate for overall accesses
system.cpu.dcache.demand_avg_miss_latency::.switch_cpus.data 70829.921340                       # average overall miss latency
system.cpu.dcache.demand_avg_miss_latency::total 70829.910723                       # average overall miss latency
system.cpu.dcache.overall_avg_miss_latency::.switch_cpus.data 70829.921340                       # average overall miss latency
system.cpu.dcache.overall_avg_miss_latency::total 70829.910723                       # average overall miss latency
system.cpu.dcache.blocked_cycles::no_mshrs    223776705                       # number of cycles access was blocked
system.cpu.dcache.blocked_cycles::no_targets           21                       # number of cycles access was blocked
system.cpu.dcache.blocked::no_mshrs           6264917                       # number of cycles access was blocked
system.cpu.dcache.blocked::no_targets               2                       # number of cycles access was blocked
system.cpu.dcache.avg_blocked_cycles::no_mshrs    35.719021                       # average number of cycles each access was blocked
system.cpu.dcache.avg_blocked_cycles::no_targets    10.500000                       # average number of cycles each access was blocked
system.cpu.dcache.writebacks::.writebacks       658841                       # number of writebacks
system.cpu.dcache.writebacks::total            658841                       # number of writebacks
system.cpu.dcache.demand_mshr_hits::.switch_cpus.data      6768627                       # number of demand (read+write) MSHR hits
system.cpu.dcache.demand_mshr_hits::total      6768627                       # number of demand (read+write) MSHR hits
system.cpu.dcache.overall_mshr_hits::.switch_cpus.data      6768627                       # number of overall MSHR hits
system.cpu.dcache.overall_mshr_hits::total      6768627                       # number of overall MSHR hits
system.cpu.dcache.demand_mshr_misses::.switch_cpus.data      6573047                       # number of demand (read+write) MSHR misses
system.cpu.dcache.demand_mshr_misses::total      6573047                       # number of demand (read+write) MSHR misses
system.cpu.dcache.overall_mshr_misses::.switch_cpus.data      6573047                       # number of overall MSHR misses
system.cpu.dcache.overall_mshr_misses::total      6573047                       # number of overall MSHR misses
system.cpu.dcache.demand_mshr_miss_latency::.switch_cpus.data 486944707555                       # number of demand (read+write) MSHR miss cycles
system.cpu.dcache.demand_mshr_miss_latency::total 486944707555                       # number of demand (read+write) MSHR miss cycles
system.cpu.dcache.overall_mshr_miss_latency::.switch_cpus.data 486944707555                       # number of overall MSHR miss cycles
system.cpu.dcache.overall_mshr_miss_latency::total 486944707555                       # number of overall MSHR miss cycles
system.cpu.dcache.demand_mshr_miss_rate::.switch_cpus.data     0.368133                       # mshr miss rate for demand accesses
system.cpu.dcache.demand_mshr_miss_rate::total     0.368133                       # mshr miss rate for demand accesses
system.cpu.dcache.overall_mshr_miss_rate::.switch_cpus.data     0.368133                       # mshr miss rate for overall accesses
system.cpu.dcache.overall_mshr_miss_rate::total     0.368133                       # mshr miss rate for overall accesses
system.cpu.dcache.demand_avg_mshr_miss_latency::.switch_cpus.data 74082.036467                       # average overall mshr miss latency
system.cpu.dcache.demand_avg_mshr_miss_latency::total 74082.036467                       # average overall mshr miss latency
system.cpu.dcache.overall_avg_mshr_miss_latency::.switch_cpus.data 74082.036467                       # average overall mshr miss latency
system.cpu.dcache.overall_avg_mshr_miss_latency::total 74082.036467                       # average overall mshr miss latency
system.cpu.dcache.replacements                6572021                       # number of replacements
system.cpu.dcache.ReadReq_hits::.switch_cpus.data      4117420                       # number of ReadReq hits
system.cpu.dcache.ReadReq_hits::total         4117420                       # number of ReadReq hits
system.cpu.dcache.ReadReq_misses::.cpu.data            2                       # number of ReadReq misses
system.cpu.dcache.ReadReq_misses::.switch_cpus.data     13330679                       # number of ReadReq misses
system.cpu.dcache.ReadReq_misses::total      13330681                       # number of ReadReq misses
system.cpu.dcache.ReadReq_miss_latency::.switch_cpus.data 944471436000                       # number of ReadReq miss cycles
system.cpu.dcache.ReadReq_miss_latency::total 944471436000                       # number of ReadReq miss cycles
system.cpu.dcache.ReadReq_accesses::.cpu.data            2                       # number of ReadReq accesses(hits+misses)
system.cpu.dcache.ReadReq_accesses::.switch_cpus.data     17448099                       # number of ReadReq accesses(hits+misses)
system.cpu.dcache.ReadReq_accesses::total     17448101                       # number of ReadReq accesses(hits+misses)
system.cpu.dcache.ReadReq_miss_rate::.cpu.data            1                       # miss rate for ReadReq accesses
system.cpu.dcache.ReadReq_miss_rate::.switch_cpus.data     0.764019                       # miss rate for ReadReq accesses
system.cpu.dcache.ReadReq_miss_rate::total     0.764019                       # miss rate for ReadReq accesses
system.cpu.dcache.ReadReq_avg_miss_latency::.switch_cpus.data 70849.462057                       # average ReadReq miss latency
system.cpu.dcache.ReadReq_avg_miss_latency::total 70849.451427                       # average ReadReq miss latency
system.cpu.dcache.ReadReq_mshr_hits::.switch_cpus.data      6768350                       # number of ReadReq MSHR hits
system.cpu.dcache.ReadReq_mshr_hits::total      6768350                       # number of ReadReq MSHR hits
system.cpu.dcache.ReadReq_mshr_misses::.switch_cpus.data      6562329                       # number of ReadReq MSHR misses
system.cpu.dcache.ReadReq_mshr_misses::total      6562329                       # number of ReadReq MSHR misses
system.cpu.dcache.ReadReq_mshr_miss_latency::.switch_cpus.data 486441731000                       # number of ReadReq MSHR miss cycles
system.cpu.dcache.ReadReq_mshr_miss_latency::total 486441731000                       # number of ReadReq MSHR miss cycles
system.cpu.dcache.ReadReq_mshr_miss_rate::.switch_cpus.data     0.376106                       # mshr miss rate for ReadReq accesses
system.cpu.dcache.ReadReq_mshr_miss_rate::total     0.376106                       # mshr miss rate for ReadReq accesses
system.cpu.dcache.ReadReq_avg_mshr_miss_latency::.switch_cpus.data 74126.385769                       # average ReadReq mshr miss latency
system.cpu.dcache.ReadReq_avg_mshr_miss_latency::total 74126.385769                       # average ReadReq mshr miss latency
system.cpu.dcache.WriteReq_hits::.switch_cpus.data       395986                       # number of WriteReq hits
system.cpu.dcache.WriteReq_hits::total         395986                       # number of WriteReq hits
system.cpu.dcache.WriteReq_misses::.switch_cpus.data        10995                       # number of WriteReq misses
system.cpu.dcache.WriteReq_misses::total        10995                       # number of WriteReq misses
system.cpu.dcache.WriteReq_miss_latency::.switch_cpus.data    518283969                       # number of WriteReq miss cycles
system.cpu.dcache.WriteReq_miss_latency::total    518283969                       # number of WriteReq miss cycles
system.cpu.dcache.WriteReq_accesses::.switch_cpus.data       406981                       # number of WriteReq accesses(hits+misses)
system.cpu.dcache.WriteReq_accesses::total       406981                       # number of WriteReq accesses(hits+misses)
system.cpu.dcache.WriteReq_miss_rate::.switch_cpus.data     0.027016                       # miss rate for WriteReq accesses
system.cpu.dcache.WriteReq_miss_rate::total     0.027016                       # miss rate for WriteReq accesses
system.cpu.dcache.WriteReq_avg_miss_latency::.switch_cpus.data 47138.150887                       # average WriteReq miss latency
system.cpu.dcache.WriteReq_avg_miss_latency::total 47138.150887                       # average WriteReq miss latency
system.cpu.dcache.WriteReq_mshr_hits::.switch_cpus.data          277                       # number of WriteReq MSHR hits
system.cpu.dcache.WriteReq_mshr_hits::total          277                       # number of WriteReq MSHR hits
system.cpu.dcache.WriteReq_mshr_misses::.switch_cpus.data        10718                       # number of WriteReq MSHR misses
system.cpu.dcache.WriteReq_mshr_misses::total        10718                       # number of WriteReq MSHR misses
system.cpu.dcache.WriteReq_mshr_miss_latency::.switch_cpus.data    502976555                       # number of WriteReq MSHR miss cycles
system.cpu.dcache.WriteReq_mshr_miss_latency::total    502976555                       # number of WriteReq MSHR miss cycles
system.cpu.dcache.WriteReq_mshr_miss_rate::.switch_cpus.data     0.026335                       # mshr miss rate for WriteReq accesses
system.cpu.dcache.WriteReq_mshr_miss_rate::total     0.026335                       # mshr miss rate for WriteReq accesses
system.cpu.dcache.WriteReq_avg_mshr_miss_latency::.switch_cpus.data 46928.210021                       # average WriteReq mshr miss latency
system.cpu.dcache.WriteReq_avg_mshr_miss_latency::total 46928.210021                       # average WriteReq mshr miss latency
system.cpu.dcache.tags.pwrStateResidencyTicks::UNDEFINED 190282162469000                       # Cumulative time (in ticks) in various power states
system.cpu.dcache.tags.tagsinuse             0.708259                       # Cycle average of tags in use
system.cpu.dcache.tags.total_refs            11086451                       # Total number of references to valid blocks.
system.cpu.dcache.tags.sampled_refs           6573045                       # Sample count of references to valid blocks.
system.cpu.dcache.tags.avg_refs              1.686654                       # Average number of references to valid blocks.
system.cpu.dcache.tags.warmup_cycle      190150534270000                       # Cycle when the warmup percentage was hit.
system.cpu.dcache.tags.occ_blocks::.cpu.data     0.000000                       # Average occupied blocks per requestor
system.cpu.dcache.tags.occ_blocks::.switch_cpus.data     0.708259                       # Average occupied blocks per requestor
system.cpu.dcache.tags.occ_percent::.cpu.data     0.000000                       # Average percentage of cache occupancy
system.cpu.dcache.tags.occ_percent::.switch_cpus.data     0.000692                       # Average percentage of cache occupancy
system.cpu.dcache.tags.occ_percent::total     0.000692                       # Average percentage of cache occupancy
system.cpu.dcache.tags.occ_task_id_blocks::1024         1024                       # Occupied blocks per task id
system.cpu.dcache.tags.age_task_id_blocks_1024::0          452                       # Occupied blocks per task id
system.cpu.dcache.tags.age_task_id_blocks_1024::1          571                       # Occupied blocks per task id
system.cpu.dcache.tags.age_task_id_blocks_1024::2            1                       # Occupied blocks per task id
system.cpu.dcache.tags.occ_task_id_percent::1024            1                       # Percentage of cache occupancy per task id
system.cpu.dcache.tags.tag_accesses          42283209                       # Number of tag accesses
system.cpu.dcache.tags.data_accesses         42283209                       # Number of data accesses

---------- End Simulation Statistics   ----------
