
---------- Begin Simulation Statistics ----------
final_tick                               359104406148500                       # Number of ticks from beginning of simulation (restored from checkpoints and never reset)
host_inst_rate                                  41534                       # Simulator instruction rate (inst/s)
host_mem_usage                                 805516                       # Number of bytes of host memory used
host_op_rate                                    70094                       # Simulator op (including micro ops) rate (op/s)
host_seconds                                   240.77                       # Real time elapsed on the host
host_tick_rate                               41111462                       # Simulator tick rate (ticks/s)
sim_freq                                 1000000000000                       # Frequency of simulated ticks
sim_insts                                    10000009                       # Number of instructions simulated
sim_ops                                      16876344                       # Number of ops (including micro ops) simulated
sim_seconds                                  0.009898                       # Number of seconds simulated
sim_ticks                                  9898308500                       # Number of ticks simulated
system.cpu.Branches                                 1                       # Number of branches fetched
system.cpu.committedInsts                           8                       # Number of instructions committed
system.cpu.committedOps                            16                       # Number of ops (including micro ops) committed
system.cpu.dtb.rdAccesses                           4                       # TLB accesses on read requests
system.cpu.dtb.rdMisses                             0                       # TLB misses on read requests
system.cpu.dtb.wrAccesses                           0                       # TLB accesses on write requests
system.cpu.dtb.wrMisses                             0                       # TLB misses on write requests
system.cpu.idle_fraction                            0                       # Percentage of idle cycles
system.cpu.itb.rdAccesses                           0                       # TLB accesses on read requests
system.cpu.itb.rdMisses                             0                       # TLB misses on read requests
system.cpu.itb.wrAccesses                          12                       # TLB accesses on write requests
system.cpu.itb.wrMisses                             0                       # TLB misses on write requests
system.cpu.not_idle_fraction                        1                       # Percentage of non-idle cycles
system.cpu.numCycles                               20                       # number of cpu cycles simulated
system.cpu.numWorkItemsCompleted                    0                       # number of work items this cpu completed
system.cpu.numWorkItemsStarted                      0                       # number of work items this cpu started
system.cpu.num_busy_cycles                         20                       # Number of busy cycles
system.cpu.num_cc_register_reads                    5                       # number of times the CC registers were read
system.cpu.num_conditional_control_insts            1                       # number of instructions that are conditional controls
system.cpu.num_fp_alu_accesses                     13                       # Number of float alu accesses
system.cpu.num_fp_insts                            13                       # number of float instructions
system.cpu.num_fp_register_reads                   20                       # number of times the floating registers were read
system.cpu.num_fp_register_writes                  13                       # number of times the floating registers were written
system.cpu.num_func_calls                           0                       # number of times a function call or return occured
system.cpu.num_idle_cycles                          0                       # Number of idle cycles
system.cpu.num_int_alu_accesses                     6                       # Number of integer alu accesses
system.cpu.num_int_insts                            6                       # number of integer instructions
system.cpu.num_int_register_reads                  13                       # number of times the integer registers were read
system.cpu.num_int_register_writes                  2                       # number of times the integer registers were written
system.cpu.num_load_insts                           3                       # Number of load instructions
system.cpu.num_mem_refs                             3                       # number of memory refs
system.cpu.num_store_insts                          0                       # Number of store instructions
system.cpu.num_vec_alu_accesses                     0                       # Number of vector alu accesses
system.cpu.num_vec_insts                            0                       # number of vector instructions
system.cpu.num_vec_register_reads                   0                       # number of times the vector registers were read
system.cpu.num_vec_register_writes                  0                       # number of times the vector registers were written
system.cpu.op_class::No_OpClass                     0      0.00%      0.00% # Class of executed instruction
system.cpu.op_class::IntAlu                         5     31.25%     31.25% # Class of executed instruction
system.cpu.op_class::IntMult                        0      0.00%     31.25% # Class of executed instruction
system.cpu.op_class::IntDiv                         0      0.00%     31.25% # Class of executed instruction
system.cpu.op_class::FloatAdd                       2     12.50%     43.75% # Class of executed instruction
system.cpu.op_class::FloatCmp                       0      0.00%     43.75% # Class of executed instruction
system.cpu.op_class::FloatCvt                       0      0.00%     43.75% # Class of executed instruction
system.cpu.op_class::FloatMult                      0      0.00%     43.75% # Class of executed instruction
system.cpu.op_class::FloatMultAcc                   0      0.00%     43.75% # Class of executed instruction
system.cpu.op_class::FloatDiv                       0      0.00%     43.75% # Class of executed instruction
system.cpu.op_class::FloatMisc                      0      0.00%     43.75% # Class of executed instruction
system.cpu.op_class::FloatSqrt                      0      0.00%     43.75% # Class of executed instruction
system.cpu.op_class::SimdAdd                        0      0.00%     43.75% # Class of executed instruction
system.cpu.op_class::SimdAddAcc                     0      0.00%     43.75% # Class of executed instruction
system.cpu.op_class::SimdAlu                        2     12.50%     56.25% # Class of executed instruction
system.cpu.op_class::SimdCmp                        0      0.00%     56.25% # Class of executed instruction
system.cpu.op_class::SimdCvt                        0      0.00%     56.25% # Class of executed instruction
system.cpu.op_class::SimdMisc                       0      0.00%     56.25% # Class of executed instruction
system.cpu.op_class::SimdMult                       0      0.00%     56.25% # Class of executed instruction
system.cpu.op_class::SimdMultAcc                    0      0.00%     56.25% # Class of executed instruction
system.cpu.op_class::SimdShift                      0      0.00%     56.25% # Class of executed instruction
system.cpu.op_class::SimdShiftAcc                   0      0.00%     56.25% # Class of executed instruction
system.cpu.op_class::SimdDiv                        0      0.00%     56.25% # Class of executed instruction
system.cpu.op_class::SimdSqrt                       0      0.00%     56.25% # Class of executed instruction
system.cpu.op_class::SimdFloatAdd                   3     18.75%     75.00% # Class of executed instruction
system.cpu.op_class::SimdFloatAlu                   0      0.00%     75.00% # Class of executed instruction
system.cpu.op_class::SimdFloatCmp                   0      0.00%     75.00% # Class of executed instruction
system.cpu.op_class::SimdFloatCvt                   0      0.00%     75.00% # Class of executed instruction
system.cpu.op_class::SimdFloatDiv                   0      0.00%     75.00% # Class of executed instruction
system.cpu.op_class::SimdFloatMisc                  0      0.00%     75.00% # Class of executed instruction
system.cpu.op_class::SimdFloatMult                  1      6.25%     81.25% # Class of executed instruction
system.cpu.op_class::SimdFloatMultAcc               0      0.00%     81.25% # Class of executed instruction
system.cpu.op_class::SimdFloatSqrt                  0      0.00%     81.25% # Class of executed instruction
system.cpu.op_class::SimdReduceAdd                  0      0.00%     81.25% # Class of executed instruction
system.cpu.op_class::SimdReduceAlu                  0      0.00%     81.25% # Class of executed instruction
system.cpu.op_class::SimdReduceCmp                  0      0.00%     81.25% # Class of executed instruction
system.cpu.op_class::SimdFloatReduceAdd             0      0.00%     81.25% # Class of executed instruction
system.cpu.op_class::SimdFloatReduceCmp             0      0.00%     81.25% # Class of executed instruction
system.cpu.op_class::SimdAes                        0      0.00%     81.25% # Class of executed instruction
system.cpu.op_class::SimdAesMix                     0      0.00%     81.25% # Class of executed instruction
system.cpu.op_class::SimdSha1Hash                   0      0.00%     81.25% # Class of executed instruction
system.cpu.op_class::SimdSha1Hash2                  0      0.00%     81.25% # Class of executed instruction
system.cpu.op_class::SimdSha256Hash                 0      0.00%     81.25% # Class of executed instruction
system.cpu.op_class::SimdSha256Hash2                0      0.00%     81.25% # Class of executed instruction
system.cpu.op_class::SimdShaSigma2                  0      0.00%     81.25% # Class of executed instruction
system.cpu.op_class::SimdShaSigma3                  0      0.00%     81.25% # Class of executed instruction
system.cpu.op_class::SimdPredAlu                    0      0.00%     81.25% # Class of executed instruction
system.cpu.op_class::MemRead                        0      0.00%     81.25% # Class of executed instruction
system.cpu.op_class::MemWrite                       0      0.00%     81.25% # Class of executed instruction
system.cpu.op_class::FloatMemRead                   3     18.75%    100.00% # Class of executed instruction
system.cpu.op_class::FloatMemWrite                  0      0.00%    100.00% # Class of executed instruction
system.cpu.op_class::IprAccess                      0      0.00%    100.00% # Class of executed instruction
system.cpu.op_class::InstPrefetch                   0      0.00%    100.00% # Class of executed instruction
system.cpu.op_class::total                         16                       # Class of executed instruction
system.cpu.workload.numSyscalls                     0                       # Number of system calls
system.membus.snoop_filter.hit_multi_requests            0                       # Number of requests hitting in the snoop filter with multiple (>1) holders of the requested data.
system.membus.snoop_filter.hit_multi_snoops            0                       # Number of snoops hitting in the snoop filter with multiple (>1) holders of the requested data.
system.membus.snoop_filter.hit_single_requests       189019                       # Number of requests hitting in the snoop filter with a single holder of the requested data.
system.membus.snoop_filter.hit_single_snoops            0                       # Number of snoops hitting in the snoop filter with a single holder of the requested data.
system.membus.snoop_filter.tot_requests        380553                       # Total number of requests made to the snoop filter.
system.membus.snoop_filter.tot_snoops               0                       # Total number of snoops made to the snoop filter.
system.switch_cpus.branchPred.BTBCorrect            0                       # Number of correct BTB predictions (this stat may not work properly.
system.switch_cpus.branchPred.BTBHitPct      0.000000                       # BTB Hit Percentage
system.switch_cpus.branchPred.BTBHits               0                       # Number of BTB hits
system.switch_cpus.branchPred.BTBLookups      1373136                       # Number of BTB lookups
system.switch_cpus.branchPred.RASInCorrect           38                       # Number of incorrect RAS predictions.
system.switch_cpus.branchPred.condIncorrect        77111                       # Number of conditional branches incorrect
system.switch_cpus.branchPred.condPredicted      1409543                       # Number of conditional branches predicted
system.switch_cpus.branchPred.indirectHits      1023200                       # Number of indirect target hits.
system.switch_cpus.branchPred.indirectLookups      1373136                       # Number of indirect predictor lookups.
system.switch_cpus.branchPred.indirectMisses       349936                       # Number of indirect misses.
system.switch_cpus.branchPred.lookups         1510916                       # Number of BP lookups
system.switch_cpus.branchPred.usedRAS           49304                       # Number of times the RAS was used to get a target.
system.switch_cpus.branchPredindirectMispredicted        19803                       # Number of mispredicted indirect branches.
system.switch_cpus.cc_regfile_reads           6494433                       # number of cc regfile reads
system.switch_cpus.cc_regfile_writes          4466434                       # number of cc regfile writes
system.switch_cpus.commit.amos                      0                       # Number of atomic instructions committed
system.switch_cpus.commit.branchMispredicts        77201                       # The number of times a branch was mispredicted
system.switch_cpus.commit.branches            1049066                       # Number of branches committed
system.switch_cpus.commit.bw_lim_events       1446899                       # number cycles where commit BW limit reached
system.switch_cpus.commit.commitSquashedInsts      3111310                       # The number of squashed insts skipped by commit
system.switch_cpus.commit.committedInsts     10000001                       # Number of instructions committed
system.switch_cpus.commit.committedOps       16876328                       # Number of ops (including micro ops) committed
system.switch_cpus.commit.committed_per_cycle::samples     19297922                       # Number of insts commited each cycle
system.switch_cpus.commit.committed_per_cycle::mean     0.874515                       # Number of insts commited each cycle
system.switch_cpus.commit.committed_per_cycle::stdev     2.256975                       # Number of insts commited each cycle
system.switch_cpus.commit.committed_per_cycle::underflows            0      0.00%      0.00% # Number of insts commited each cycle
system.switch_cpus.commit.committed_per_cycle::0     15869584     82.23%     82.23% # Number of insts commited each cycle
system.switch_cpus.commit.committed_per_cycle::1       883684      4.58%     86.81% # Number of insts commited each cycle
system.switch_cpus.commit.committed_per_cycle::2       142717      0.74%     87.55% # Number of insts commited each cycle
system.switch_cpus.commit.committed_per_cycle::3       219598      1.14%     88.69% # Number of insts commited each cycle
system.switch_cpus.commit.committed_per_cycle::4       389826      2.02%     90.71% # Number of insts commited each cycle
system.switch_cpus.commit.committed_per_cycle::5       213047      1.10%     91.82% # Number of insts commited each cycle
system.switch_cpus.commit.committed_per_cycle::6        79284      0.41%     92.23% # Number of insts commited each cycle
system.switch_cpus.commit.committed_per_cycle::7        53283      0.28%     92.50% # Number of insts commited each cycle
system.switch_cpus.commit.committed_per_cycle::8      1446899      7.50%    100.00% # Number of insts commited each cycle
system.switch_cpus.commit.committed_per_cycle::overflows            0      0.00%    100.00% # Number of insts commited each cycle
system.switch_cpus.commit.committed_per_cycle::min_value            0                       # Number of insts commited each cycle
system.switch_cpus.commit.committed_per_cycle::max_value            8                       # Number of insts commited each cycle
system.switch_cpus.commit.committed_per_cycle::total     19297922                       # Number of insts commited each cycle
system.switch_cpus.commit.fp_insts            8713194                       # Number of committed floating point instructions.
system.switch_cpus.commit.function_calls        26226                       # Number of function calls committed.
system.switch_cpus.commit.int_insts          10019631                       # Number of committed integer instructions.
system.switch_cpus.commit.loads               2743170                       # Number of loads committed
system.switch_cpus.commit.membars                   0                       # Number of memory barriers committed
system.switch_cpus.commit.op_class_0::No_OpClass        27517      0.16%      0.16% # Class of committed instruction
system.switch_cpus.commit.op_class_0::IntAlu      7410720     43.91%     44.07% # Class of committed instruction
system.switch_cpus.commit.op_class_0::IntMult          119      0.00%     44.08% # Class of committed instruction
system.switch_cpus.commit.op_class_0::IntDiv           56      0.00%     44.08% # Class of committed instruction
system.switch_cpus.commit.op_class_0::FloatAdd       891416      5.28%     49.36% # Class of committed instruction
system.switch_cpus.commit.op_class_0::FloatCmp            0      0.00%     49.36% # Class of committed instruction
system.switch_cpus.commit.op_class_0::FloatCvt            0      0.00%     49.36% # Class of committed instruction
system.switch_cpus.commit.op_class_0::FloatMult            0      0.00%     49.36% # Class of committed instruction
system.switch_cpus.commit.op_class_0::FloatMultAcc            0      0.00%     49.36% # Class of committed instruction
system.switch_cpus.commit.op_class_0::FloatDiv            0      0.00%     49.36% # Class of committed instruction
system.switch_cpus.commit.op_class_0::FloatMisc            0      0.00%     49.36% # Class of committed instruction
system.switch_cpus.commit.op_class_0::FloatSqrt            0      0.00%     49.36% # Class of committed instruction
system.switch_cpus.commit.op_class_0::SimdAdd            0      0.00%     49.36% # Class of committed instruction
system.switch_cpus.commit.op_class_0::SimdAddAcc            0      0.00%     49.36% # Class of committed instruction
system.switch_cpus.commit.op_class_0::SimdAlu      1379320      8.17%     57.53% # Class of committed instruction
system.switch_cpus.commit.op_class_0::SimdCmp            0      0.00%     57.53% # Class of committed instruction
system.switch_cpus.commit.op_class_0::SimdCvt            4      0.00%     57.53% # Class of committed instruction
system.switch_cpus.commit.op_class_0::SimdMisc        34436      0.20%     57.74% # Class of committed instruction
system.switch_cpus.commit.op_class_0::SimdMult            0      0.00%     57.74% # Class of committed instruction
system.switch_cpus.commit.op_class_0::SimdMultAcc            0      0.00%     57.74% # Class of committed instruction
system.switch_cpus.commit.op_class_0::SimdShift            0      0.00%     57.74% # Class of committed instruction
system.switch_cpus.commit.op_class_0::SimdShiftAcc            0      0.00%     57.74% # Class of committed instruction
system.switch_cpus.commit.op_class_0::SimdDiv            0      0.00%     57.74% # Class of committed instruction
system.switch_cpus.commit.op_class_0::SimdSqrt            0      0.00%     57.74% # Class of committed instruction
system.switch_cpus.commit.op_class_0::SimdFloatAdd      1310530      7.77%     65.50% # Class of committed instruction
system.switch_cpus.commit.op_class_0::SimdFloatAlu            0      0.00%     65.50% # Class of committed instruction
system.switch_cpus.commit.op_class_0::SimdFloatCmp        15450      0.09%     65.59% # Class of committed instruction
system.switch_cpus.commit.op_class_0::SimdFloatCvt      1398264      8.29%     73.88% # Class of committed instruction
system.switch_cpus.commit.op_class_0::SimdFloatDiv            0      0.00%     73.88% # Class of committed instruction
system.switch_cpus.commit.op_class_0::SimdFloatMisc            0      0.00%     73.88% # Class of committed instruction
system.switch_cpus.commit.op_class_0::SimdFloatMult      1344926      7.97%     81.85% # Class of committed instruction
system.switch_cpus.commit.op_class_0::SimdFloatMultAcc            0      0.00%     81.85% # Class of committed instruction
system.switch_cpus.commit.op_class_0::SimdFloatSqrt            0      0.00%     81.85% # Class of committed instruction
system.switch_cpus.commit.op_class_0::SimdReduceAdd            0      0.00%     81.85% # Class of committed instruction
system.switch_cpus.commit.op_class_0::SimdReduceAlu            0      0.00%     81.85% # Class of committed instruction
system.switch_cpus.commit.op_class_0::SimdReduceCmp            0      0.00%     81.85% # Class of committed instruction
system.switch_cpus.commit.op_class_0::SimdFloatReduceAdd            0      0.00%     81.85% # Class of committed instruction
system.switch_cpus.commit.op_class_0::SimdFloatReduceCmp            0      0.00%     81.85% # Class of committed instruction
system.switch_cpus.commit.op_class_0::SimdAes            0      0.00%     81.85% # Class of committed instruction
system.switch_cpus.commit.op_class_0::SimdAesMix            0      0.00%     81.85% # Class of committed instruction
system.switch_cpus.commit.op_class_0::SimdSha1Hash            0      0.00%     81.85% # Class of committed instruction
system.switch_cpus.commit.op_class_0::SimdSha1Hash2            0      0.00%     81.85% # Class of committed instruction
system.switch_cpus.commit.op_class_0::SimdSha256Hash            0      0.00%     81.85% # Class of committed instruction
system.switch_cpus.commit.op_class_0::SimdSha256Hash2            0      0.00%     81.85% # Class of committed instruction
system.switch_cpus.commit.op_class_0::SimdShaSigma2            0      0.00%     81.85% # Class of committed instruction
system.switch_cpus.commit.op_class_0::SimdShaSigma3            0      0.00%     81.85% # Class of committed instruction
system.switch_cpus.commit.op_class_0::SimdPredAlu            0      0.00%     81.85% # Class of committed instruction
system.switch_cpus.commit.op_class_0::MemRead       937733      5.56%     87.40% # Class of committed instruction
system.switch_cpus.commit.op_class_0::MemWrite       275299      1.63%     89.03% # Class of committed instruction
system.switch_cpus.commit.op_class_0::FloatMemRead      1805437     10.70%     99.73% # Class of committed instruction
system.switch_cpus.commit.op_class_0::FloatMemWrite        45101      0.27%    100.00% # Class of committed instruction
system.switch_cpus.commit.op_class_0::IprAccess            0      0.00%    100.00% # Class of committed instruction
system.switch_cpus.commit.op_class_0::InstPrefetch            0      0.00%    100.00% # Class of committed instruction
system.switch_cpus.commit.op_class_0::total     16876328                       # Class of committed instruction
system.switch_cpus.commit.refs                3063570                       # Number of memory references committed
system.switch_cpus.commit.swp_count                 0                       # Number of s/w prefetches committed
system.switch_cpus.commit.vec_insts                 0                       # Number of committed Vector instructions.
system.switch_cpus.committedInsts            10000001                       # Number of Instructions Simulated
system.switch_cpus.committedOps              16876328                       # Number of Ops (including micro ops) Simulated
system.switch_cpus.cpi                       1.979660                       # CPI: Cycles Per Instruction
system.switch_cpus.cpi_total                 1.979660                       # CPI: Total CPI of All Threads
system.switch_cpus.decode.BlockedCycles      15489146                       # Number of cycles decode is blocked
system.switch_cpus.decode.DecodedInsts       20919027                       # Number of instructions handled by decode
system.switch_cpus.decode.IdleCycles          1183736                       # Number of cycles decode is idle
system.switch_cpus.decode.RunCycles           2153528                       # Number of cycles decode is running
system.switch_cpus.decode.SquashCycles          77480                       # Number of cycles decode is squashing
system.switch_cpus.decode.UnblockCycles        831482                       # Number of cycles decode is unblocking
system.switch_cpus.dtb.rdAccesses             3225519                       # TLB accesses on read requests
system.switch_cpus.dtb.rdMisses                 15621                       # TLB misses on read requests
system.switch_cpus.dtb.wrAccesses              369671                       # TLB accesses on write requests
system.switch_cpus.dtb.wrMisses                  1261                       # TLB misses on write requests
system.switch_cpus.fetch.Branches             1510916                       # Number of branches that fetch encountered
system.switch_cpus.fetch.CacheLines           1749623                       # Number of cache lines fetched
system.switch_cpus.fetch.Cycles              17838734                       # Number of cycles fetch has run and was not squashing or blocked
system.switch_cpus.fetch.IcacheSquashes         16665                       # Number of outstanding Icache misses that were squashed
system.switch_cpus.fetch.IcacheWaitRetryStallCycles           68                       # Number of stall cycles due to full MSHR
system.switch_cpus.fetch.Insts               13134373                       # Number of instructions fetch has processed
system.switch_cpus.fetch.MiscStallCycles           85                       # Number of cycles fetch has spent waiting on interrupts, or bad addresses, or out of MSHRs
system.switch_cpus.fetch.PendingTrapStallCycles         3263                       # Number of stall cycles due to pending traps
system.switch_cpus.fetch.SquashCycles          154960                       # Number of cycles fetch has spent squashing
system.switch_cpus.fetch.branchRate          0.076322                       # Number of branch fetches per cycle
system.switch_cpus.fetch.icacheStallCycles      1815746                       # Number of cycles fetch is stalled on an Icache miss
system.switch_cpus.fetch.predictedBranches      1072504                       # Number of branches that fetch has predicted taken
system.switch_cpus.fetch.rate                0.663466                       # Number of inst fetches per cycle
system.switch_cpus.fetch.rateDist::samples     19735376                       # Number of instructions fetched each cycle (Total)
system.switch_cpus.fetch.rateDist::mean      1.127910                       # Number of instructions fetched each cycle (Total)
system.switch_cpus.fetch.rateDist::stdev     2.538767                       # Number of instructions fetched each cycle (Total)
system.switch_cpus.fetch.rateDist::underflows            0      0.00%      0.00% # Number of instructions fetched each cycle (Total)
system.switch_cpus.fetch.rateDist::0         15955776     80.85%     80.85% # Number of instructions fetched each cycle (Total)
system.switch_cpus.fetch.rateDist::1           280038      1.42%     82.27% # Number of instructions fetched each cycle (Total)
system.switch_cpus.fetch.rateDist::2           217104      1.10%     83.37% # Number of instructions fetched each cycle (Total)
system.switch_cpus.fetch.rateDist::3           227064      1.15%     84.52% # Number of instructions fetched each cycle (Total)
system.switch_cpus.fetch.rateDist::4           327051      1.66%     86.18% # Number of instructions fetched each cycle (Total)
system.switch_cpus.fetch.rateDist::5           389319      1.97%     88.15% # Number of instructions fetched each cycle (Total)
system.switch_cpus.fetch.rateDist::6           496709      2.52%     90.66% # Number of instructions fetched each cycle (Total)
system.switch_cpus.fetch.rateDist::7           109291      0.55%     91.22% # Number of instructions fetched each cycle (Total)
system.switch_cpus.fetch.rateDist::8          1733024      8.78%    100.00% # Number of instructions fetched each cycle (Total)
system.switch_cpus.fetch.rateDist::overflows            0      0.00%    100.00% # Number of instructions fetched each cycle (Total)
system.switch_cpus.fetch.rateDist::min_value            0                       # Number of instructions fetched each cycle (Total)
system.switch_cpus.fetch.rateDist::max_value            8                       # Number of instructions fetched each cycle (Total)
system.switch_cpus.fetch.rateDist::total     19735376                       # Number of instructions fetched each cycle (Total)
system.switch_cpus.fp_regfile_reads          14836059                       # number of floating regfile reads
system.switch_cpus.fp_regfile_writes          8827089                       # number of floating regfile writes
system.switch_cpus.idleCycles                   61221                       # Total number of cycles that the CPU has spent unscheduled due to idling
system.switch_cpus.iew.branchMispredicts        87526                       # Number of branch mispredicts detected at execute
system.switch_cpus.iew.exec_branches          1168774                       # Number of branches executed
system.switch_cpus.iew.exec_nop                     0                       # number of nop insts executed
system.switch_cpus.iew.exec_rate             0.960000                       # Inst execution rate
system.switch_cpus.iew.exec_refs              3706600                       # number of memory reference insts executed
system.switch_cpus.iew.exec_stores             369596                       # Number of stores executed
system.switch_cpus.iew.exec_swp                     0                       # number of swp insts executed
system.switch_cpus.iew.iewBlockCycles         8119423                       # Number of cycles IEW is blocking
system.switch_cpus.iew.iewDispLoadInsts       3314767                       # Number of dispatched load instructions
system.switch_cpus.iew.iewDispNonSpecInsts           28                       # Number of dispatched non-speculative instructions
system.switch_cpus.iew.iewDispSquashedInsts         6805                       # Number of squashed instructions skipped by dispatch
system.switch_cpus.iew.iewDispStoreInsts       433532                       # Number of dispatched store instructions
system.switch_cpus.iew.iewDispatchedInsts     19984672                       # Number of instructions dispatched to IQ
system.switch_cpus.iew.iewExecLoadInsts       3337004                       # Number of load instructions executed
system.switch_cpus.iew.iewExecSquashedInsts       141230                       # Number of squashed instructions skipped in execute
system.switch_cpus.iew.iewExecutedInsts      19004733                       # Number of executed instructions
system.switch_cpus.iew.iewIQFullEvents          85043                       # Number of times the IQ has become full, causing a stall
system.switch_cpus.iew.iewIdleCycles                0                       # Number of cycles IEW is idle
system.switch_cpus.iew.iewLSQFullEvents        654029                       # Number of times the LSQ has become full, causing a stall
system.switch_cpus.iew.iewSquashCycles          77480                       # Number of cycles IEW is squashing
system.switch_cpus.iew.iewUnblockCycles        790352                       # Number of cycles IEW is unblocking
system.switch_cpus.iew.lsq.thread0.blockedLoads            0                       # Number of blocked loads due to partial load-store forwarding
system.switch_cpus.iew.lsq.thread0.cacheBlocked        32368                       # Number of times an access to memory failed due to the cache being blocked
system.switch_cpus.iew.lsq.thread0.forwLoads        55673                       # Number of loads that had data forwarded from stores
system.switch_cpus.iew.lsq.thread0.ignoredResponses          355                       # Number of memory responses ignored because the instruction is squashed
system.switch_cpus.iew.lsq.thread0.invAddrLoads            0                       # Number of loads ignored due to an invalid address
system.switch_cpus.iew.lsq.thread0.invAddrSwpfs            0                       # Number of software prefetches ignored due to an invalid address
system.switch_cpus.iew.lsq.thread0.memOrderViolation          331                       # Number of memory ordering violations
system.switch_cpus.iew.lsq.thread0.rescheduledLoads          204                       # Number of loads that were rescheduled
system.switch_cpus.iew.lsq.thread0.squashedLoads       571578                       # Number of loads squashed
system.switch_cpus.iew.lsq.thread0.squashedStores       113132                       # Number of stores squashed
system.switch_cpus.iew.memOrderViolationEvents          331                       # Number of memory order violations
system.switch_cpus.iew.predictedNotTakenIncorrect        30115                       # Number of branches that were predicted not taken incorrectly
system.switch_cpus.iew.predictedTakenIncorrect        57411                       # Number of branches that were predicted taken incorrectly
system.switch_cpus.iew.wb_consumers          24095760                       # num instructions consuming a value
system.switch_cpus.iew.wb_count              18663640                       # cumulative count of insts written-back
system.switch_cpus.iew.wb_fanout             0.596653                       # average fanout of values written-back
system.switch_cpus.iew.wb_producers          14376812                       # num instructions producing a value
system.switch_cpus.iew.wb_rate               0.942770                       # insts written-back per cycle
system.switch_cpus.iew.wb_sent               18697178                       # cumulative count of insts sent to commit
system.switch_cpus.int_regfile_reads         17308053                       # number of integer regfile reads
system.switch_cpus.int_regfile_writes         8269395                       # number of integer regfile writes
system.switch_cpus.ipc                       0.505137                       # IPC: Instructions Per Cycle
system.switch_cpus.ipc_total                 0.505137                       # IPC: Total IPC of All Threads
system.switch_cpus.iq.FU_type_0::No_OpClass        39179      0.20%      0.20% # Type of FU issued
system.switch_cpus.iq.FU_type_0::IntAlu       8799357     45.96%     46.16% # Type of FU issued
system.switch_cpus.iq.FU_type_0::IntMult          204      0.00%     46.17% # Type of FU issued
system.switch_cpus.iq.FU_type_0::IntDiv            88      0.00%     46.17% # Type of FU issued
system.switch_cpus.iq.FU_type_0::FloatAdd       967756      5.05%     51.22% # Type of FU issued
system.switch_cpus.iq.FU_type_0::FloatCmp            0      0.00%     51.22% # Type of FU issued
system.switch_cpus.iq.FU_type_0::FloatCvt            0      0.00%     51.22% # Type of FU issued
system.switch_cpus.iq.FU_type_0::FloatMult            0      0.00%     51.22% # Type of FU issued
system.switch_cpus.iq.FU_type_0::FloatMultAcc            0      0.00%     51.22% # Type of FU issued
system.switch_cpus.iq.FU_type_0::FloatDiv            0      0.00%     51.22% # Type of FU issued
system.switch_cpus.iq.FU_type_0::FloatMisc            0      0.00%     51.22% # Type of FU issued
system.switch_cpus.iq.FU_type_0::FloatSqrt            0      0.00%     51.22% # Type of FU issued
system.switch_cpus.iq.FU_type_0::SimdAdd            0      0.00%     51.22% # Type of FU issued
system.switch_cpus.iq.FU_type_0::SimdAddAcc            0      0.00%     51.22% # Type of FU issued
system.switch_cpus.iq.FU_type_0::SimdAlu      1449828      7.57%     58.79% # Type of FU issued
system.switch_cpus.iq.FU_type_0::SimdCmp            0      0.00%     58.79% # Type of FU issued
system.switch_cpus.iq.FU_type_0::SimdCvt            8      0.00%     58.79% # Type of FU issued
system.switch_cpus.iq.FU_type_0::SimdMisc        35270      0.18%     58.98% # Type of FU issued
system.switch_cpus.iq.FU_type_0::SimdMult            0      0.00%     58.98% # Type of FU issued
system.switch_cpus.iq.FU_type_0::SimdMultAcc            0      0.00%     58.98% # Type of FU issued
system.switch_cpus.iq.FU_type_0::SimdShift            0      0.00%     58.98% # Type of FU issued
system.switch_cpus.iq.FU_type_0::SimdShiftAcc            0      0.00%     58.98% # Type of FU issued
system.switch_cpus.iq.FU_type_0::SimdDiv            0      0.00%     58.98% # Type of FU issued
system.switch_cpus.iq.FU_type_0::SimdSqrt            0      0.00%     58.98% # Type of FU issued
system.switch_cpus.iq.FU_type_0::SimdFloatAdd      1317309      6.88%     65.86% # Type of FU issued
system.switch_cpus.iq.FU_type_0::SimdFloatAlu            0      0.00%     65.86% # Type of FU issued
system.switch_cpus.iq.FU_type_0::SimdFloatCmp        15455      0.08%     65.94% # Type of FU issued
system.switch_cpus.iq.FU_type_0::SimdFloatCvt      1409217      7.36%     73.30% # Type of FU issued
system.switch_cpus.iq.FU_type_0::SimdFloatDiv            0      0.00%     73.30% # Type of FU issued
system.switch_cpus.iq.FU_type_0::SimdFloatMisc            0      0.00%     73.30% # Type of FU issued
system.switch_cpus.iq.FU_type_0::SimdFloatMult      1352309      7.06%     80.36% # Type of FU issued
system.switch_cpus.iq.FU_type_0::SimdFloatMultAcc            0      0.00%     80.36% # Type of FU issued
system.switch_cpus.iq.FU_type_0::SimdFloatSqrt            0      0.00%     80.36% # Type of FU issued
system.switch_cpus.iq.FU_type_0::SimdReduceAdd            0      0.00%     80.36% # Type of FU issued
system.switch_cpus.iq.FU_type_0::SimdReduceAlu            0      0.00%     80.36% # Type of FU issued
system.switch_cpus.iq.FU_type_0::SimdReduceCmp            0      0.00%     80.36% # Type of FU issued
system.switch_cpus.iq.FU_type_0::SimdFloatReduceAdd            0      0.00%     80.36% # Type of FU issued
system.switch_cpus.iq.FU_type_0::SimdFloatReduceCmp            0      0.00%     80.36% # Type of FU issued
system.switch_cpus.iq.FU_type_0::SimdAes            0      0.00%     80.36% # Type of FU issued
system.switch_cpus.iq.FU_type_0::SimdAesMix            0      0.00%     80.36% # Type of FU issued
system.switch_cpus.iq.FU_type_0::SimdSha1Hash            0      0.00%     80.36% # Type of FU issued
system.switch_cpus.iq.FU_type_0::SimdSha1Hash2            0      0.00%     80.36% # Type of FU issued
system.switch_cpus.iq.FU_type_0::SimdSha256Hash            0      0.00%     80.36% # Type of FU issued
system.switch_cpus.iq.FU_type_0::SimdSha256Hash2            0      0.00%     80.36% # Type of FU issued
system.switch_cpus.iq.FU_type_0::SimdShaSigma2            0      0.00%     80.36% # Type of FU issued
system.switch_cpus.iq.FU_type_0::SimdShaSigma3            0      0.00%     80.36% # Type of FU issued
system.switch_cpus.iq.FU_type_0::SimdPredAlu            0      0.00%     80.36% # Type of FU issued
system.switch_cpus.iq.FU_type_0::MemRead      1405650      7.34%     87.70% # Type of FU issued
system.switch_cpus.iq.FU_type_0::MemWrite       331842      1.73%     89.44% # Type of FU issued
system.switch_cpus.iq.FU_type_0::FloatMemRead      1976549     10.32%     99.76% # Type of FU issued
system.switch_cpus.iq.FU_type_0::FloatMemWrite        45944      0.24%    100.00% # Type of FU issued
system.switch_cpus.iq.FU_type_0::IprAccess            0      0.00%    100.00% # Type of FU issued
system.switch_cpus.iq.FU_type_0::InstPrefetch            0      0.00%    100.00% # Type of FU issued
system.switch_cpus.iq.FU_type_0::total       19145965                       # Type of FU issued
system.switch_cpus.iq.fp_alu_accesses         9281218                       # Number of floating point alu accesses
system.switch_cpus.iq.fp_inst_queue_reads     18358699                       # Number of floating instruction queue reads
system.switch_cpus.iq.fp_inst_queue_wakeup_accesses      8915663                       # Number of floating instruction queue wakeup accesses
system.switch_cpus.iq.fp_inst_queue_writes      9730595                       # Number of floating instruction queue writes
system.switch_cpus.iq.fu_busy_cnt              357693                       # FU busy when requested
system.switch_cpus.iq.fu_busy_rate           0.018682                       # FU busy rate (busy events/executed inst)
system.switch_cpus.iq.fu_full::No_OpClass            0      0.00%      0.00% # attempts to use FU when none available
system.switch_cpus.iq.fu_full::IntAlu          105537     29.50%     29.50% # attempts to use FU when none available
system.switch_cpus.iq.fu_full::IntMult              0      0.00%     29.50% # attempts to use FU when none available
system.switch_cpus.iq.fu_full::IntDiv               0      0.00%     29.50% # attempts to use FU when none available
system.switch_cpus.iq.fu_full::FloatAdd             0      0.00%     29.50% # attempts to use FU when none available
system.switch_cpus.iq.fu_full::FloatCmp             0      0.00%     29.50% # attempts to use FU when none available
system.switch_cpus.iq.fu_full::FloatCvt             0      0.00%     29.50% # attempts to use FU when none available
system.switch_cpus.iq.fu_full::FloatMult            0      0.00%     29.50% # attempts to use FU when none available
system.switch_cpus.iq.fu_full::FloatMultAcc            0      0.00%     29.50% # attempts to use FU when none available
system.switch_cpus.iq.fu_full::FloatDiv             0      0.00%     29.50% # attempts to use FU when none available
system.switch_cpus.iq.fu_full::FloatMisc            0      0.00%     29.50% # attempts to use FU when none available
system.switch_cpus.iq.fu_full::FloatSqrt            0      0.00%     29.50% # attempts to use FU when none available
system.switch_cpus.iq.fu_full::SimdAdd              0      0.00%     29.50% # attempts to use FU when none available
system.switch_cpus.iq.fu_full::SimdAddAcc            0      0.00%     29.50% # attempts to use FU when none available
system.switch_cpus.iq.fu_full::SimdAlu          61787     17.27%     46.78% # attempts to use FU when none available
system.switch_cpus.iq.fu_full::SimdCmp              0      0.00%     46.78% # attempts to use FU when none available
system.switch_cpus.iq.fu_full::SimdCvt              0      0.00%     46.78% # attempts to use FU when none available
system.switch_cpus.iq.fu_full::SimdMisc             0      0.00%     46.78% # attempts to use FU when none available
system.switch_cpus.iq.fu_full::SimdMult             0      0.00%     46.78% # attempts to use FU when none available
system.switch_cpus.iq.fu_full::SimdMultAcc            0      0.00%     46.78% # attempts to use FU when none available
system.switch_cpus.iq.fu_full::SimdShift            0      0.00%     46.78% # attempts to use FU when none available
system.switch_cpus.iq.fu_full::SimdShiftAcc            0      0.00%     46.78% # attempts to use FU when none available
system.switch_cpus.iq.fu_full::SimdDiv              0      0.00%     46.78% # attempts to use FU when none available
system.switch_cpus.iq.fu_full::SimdSqrt             0      0.00%     46.78% # attempts to use FU when none available
system.switch_cpus.iq.fu_full::SimdFloatAdd        84273     23.56%     70.34% # attempts to use FU when none available
system.switch_cpus.iq.fu_full::SimdFloatAlu            0      0.00%     70.34% # attempts to use FU when none available
system.switch_cpus.iq.fu_full::SimdFloatCmp            0      0.00%     70.34% # attempts to use FU when none available
system.switch_cpus.iq.fu_full::SimdFloatCvt        22989      6.43%     76.77% # attempts to use FU when none available
system.switch_cpus.iq.fu_full::SimdFloatDiv            0      0.00%     76.77% # attempts to use FU when none available
system.switch_cpus.iq.fu_full::SimdFloatMisc            0      0.00%     76.77% # attempts to use FU when none available
system.switch_cpus.iq.fu_full::SimdFloatMult         3238      0.91%     77.67% # attempts to use FU when none available
system.switch_cpus.iq.fu_full::SimdFloatMultAcc            0      0.00%     77.67% # attempts to use FU when none available
system.switch_cpus.iq.fu_full::SimdFloatSqrt            0      0.00%     77.67% # attempts to use FU when none available
system.switch_cpus.iq.fu_full::SimdReduceAdd            0      0.00%     77.67% # attempts to use FU when none available
system.switch_cpus.iq.fu_full::SimdReduceAlu            0      0.00%     77.67% # attempts to use FU when none available
system.switch_cpus.iq.fu_full::SimdReduceCmp            0      0.00%     77.67% # attempts to use FU when none available
system.switch_cpus.iq.fu_full::SimdFloatReduceAdd            0      0.00%     77.67% # attempts to use FU when none available
system.switch_cpus.iq.fu_full::SimdFloatReduceCmp            0      0.00%     77.67% # attempts to use FU when none available
system.switch_cpus.iq.fu_full::SimdAes              0      0.00%     77.67% # attempts to use FU when none available
system.switch_cpus.iq.fu_full::SimdAesMix            0      0.00%     77.67% # attempts to use FU when none available
system.switch_cpus.iq.fu_full::SimdSha1Hash            0      0.00%     77.67% # attempts to use FU when none available
system.switch_cpus.iq.fu_full::SimdSha1Hash2            0      0.00%     77.67% # attempts to use FU when none available
system.switch_cpus.iq.fu_full::SimdSha256Hash            0      0.00%     77.67% # attempts to use FU when none available
system.switch_cpus.iq.fu_full::SimdSha256Hash2            0      0.00%     77.67% # attempts to use FU when none available
system.switch_cpus.iq.fu_full::SimdShaSigma2            0      0.00%     77.67% # attempts to use FU when none available
system.switch_cpus.iq.fu_full::SimdShaSigma3            0      0.00%     77.67% # attempts to use FU when none available
system.switch_cpus.iq.fu_full::SimdPredAlu            0      0.00%     77.67% # attempts to use FU when none available
system.switch_cpus.iq.fu_full::MemRead          38568     10.78%     88.45% # attempts to use FU when none available
system.switch_cpus.iq.fu_full::MemWrite          6108      1.71%     90.16% # attempts to use FU when none available
system.switch_cpus.iq.fu_full::FloatMemRead        35114      9.82%     99.98% # attempts to use FU when none available
system.switch_cpus.iq.fu_full::FloatMemWrite           79      0.02%    100.00% # attempts to use FU when none available
system.switch_cpus.iq.fu_full::IprAccess            0      0.00%    100.00% # attempts to use FU when none available
system.switch_cpus.iq.fu_full::InstPrefetch            0      0.00%    100.00% # attempts to use FU when none available
system.switch_cpus.iq.int_alu_accesses       10183261                       # Number of integer alu accesses
system.switch_cpus.iq.int_inst_queue_reads     40083525                       # Number of integer instruction queue reads
system.switch_cpus.iq.int_inst_queue_wakeup_accesses      9747977                       # Number of integer instruction queue wakeup accesses
system.switch_cpus.iq.int_inst_queue_writes     13362619                       # Number of integer instruction queue writes
system.switch_cpus.iq.iqInstsAdded           19984588                       # Number of instructions added to the IQ (excludes non-spec)
system.switch_cpus.iq.iqInstsIssued          19145965                       # Number of instructions issued
system.switch_cpus.iq.iqNonSpecInstsAdded           84                       # Number of non-speculative instructions added to the IQ
system.switch_cpus.iq.iqSquashedInstsExamined      3108233                       # Number of squashed instructions iterated over during squash; mainly for profiling
system.switch_cpus.iq.iqSquashedInstsIssued        57227                       # Number of squashed instructions issued
system.switch_cpus.iq.iqSquashedNonSpecRemoved           84                       # Number of squashed non-spec instructions that were removed
system.switch_cpus.iq.iqSquashedOperandsExamined      4321156                       # Number of squashed operands that are examined and possibly removed from graph
system.switch_cpus.iq.issued_per_cycle::samples     19735376                       # Number of insts issued each cycle
system.switch_cpus.iq.issued_per_cycle::mean     0.970134                       # Number of insts issued each cycle
system.switch_cpus.iq.issued_per_cycle::stdev     1.861561                       # Number of insts issued each cycle
system.switch_cpus.iq.issued_per_cycle::underflows            0      0.00%      0.00% # Number of insts issued each cycle
system.switch_cpus.iq.issued_per_cycle::0     13854412     70.20%     70.20% # Number of insts issued each cycle
system.switch_cpus.iq.issued_per_cycle::1      1545863      7.83%     78.03% # Number of insts issued each cycle
system.switch_cpus.iq.issued_per_cycle::2      1077530      5.46%     83.49% # Number of insts issued each cycle
system.switch_cpus.iq.issued_per_cycle::3       899182      4.56%     88.05% # Number of insts issued each cycle
system.switch_cpus.iq.issued_per_cycle::4       798104      4.04%     92.09% # Number of insts issued each cycle
system.switch_cpus.iq.issued_per_cycle::5       558600      2.83%     94.92% # Number of insts issued each cycle
system.switch_cpus.iq.issued_per_cycle::6       472598      2.39%     97.32% # Number of insts issued each cycle
system.switch_cpus.iq.issued_per_cycle::7       306204      1.55%     98.87% # Number of insts issued each cycle
system.switch_cpus.iq.issued_per_cycle::8       222883      1.13%    100.00% # Number of insts issued each cycle
system.switch_cpus.iq.issued_per_cycle::overflows            0      0.00%    100.00% # Number of insts issued each cycle
system.switch_cpus.iq.issued_per_cycle::min_value            0                       # Number of insts issued each cycle
system.switch_cpus.iq.issued_per_cycle::max_value            8                       # Number of insts issued each cycle
system.switch_cpus.iq.issued_per_cycle::total     19735376                       # Number of insts issued each cycle
system.switch_cpus.iq.rate                   0.967134                       # Inst issue rate
system.switch_cpus.iq.vec_alu_accesses              0                       # Number of vector alu accesses
system.switch_cpus.iq.vec_inst_queue_reads            0                       # Number of vector instruction queue reads
system.switch_cpus.iq.vec_inst_queue_wakeup_accesses            0                       # Number of vector instruction queue wakeup accesses
system.switch_cpus.iq.vec_inst_queue_writes            0                       # Number of vector instruction queue writes
system.switch_cpus.itb.rdAccesses                   0                       # TLB accesses on read requests
system.switch_cpus.itb.rdMisses                     0                       # TLB misses on read requests
system.switch_cpus.itb.wrAccesses             1750024                       # TLB accesses on write requests
system.switch_cpus.itb.wrMisses                   438                       # TLB misses on write requests
system.switch_cpus.memDep0.conflictingLoads        58520                       # Number of conflicting loads.
system.switch_cpus.memDep0.conflictingStores        20426                       # Number of conflicting stores.
system.switch_cpus.memDep0.insertedLoads      3314767                       # Number of loads inserted to the mem dependence unit.
system.switch_cpus.memDep0.insertedStores       433532                       # Number of stores inserted to the mem dependence unit.
system.switch_cpus.misc_regfile_reads         6180056                       # number of misc regfile reads
system.switch_cpus.misc_regfile_writes              1                       # number of misc regfile writes
system.switch_cpus.numCycles                 19796597                       # number of cpu cycles simulated
system.switch_cpus.numWorkItemsCompleted            0                       # number of work items this cpu completed
system.switch_cpus.numWorkItemsStarted              0                       # number of work items this cpu started
system.switch_cpus.rename.BlockCycles        12714577                       # Number of cycles rename is blocking
system.switch_cpus.rename.CommittedMaps      19414366                       # Number of HB maps that are committed
system.switch_cpus.rename.IQFullEvents        1477077                       # Number of times rename has blocked due to IQ full
system.switch_cpus.rename.IdleCycles          1533889                       # Number of cycles rename is idle
system.switch_cpus.rename.LQFullEvents         639451                       # Number of times rename has blocked due to LQ full
system.switch_cpus.rename.ROBFullEvents        188574                       # Number of times rename has blocked due to ROB full
system.switch_cpus.rename.RenameLookups      49604960                       # Number of register rename lookups that rename has made
system.switch_cpus.rename.RenamedInsts       20547921                       # Number of instructions processed by rename
system.switch_cpus.rename.RenamedOperands     23809970                       # Number of destination operands rename has renamed
system.switch_cpus.rename.RunCycles           2574077                       # Number of cycles rename is running
system.switch_cpus.rename.SQFullEvents         462453                       # Number of times rename has blocked due to SQ full
system.switch_cpus.rename.SquashCycles          77480                       # Number of cycles rename is squashing
system.switch_cpus.rename.UnblockCycles       2835349                       # Number of cycles rename is unblocking
system.switch_cpus.rename.UndoneMaps          4395472                       # Number of HB maps that are undone due to squashing
system.switch_cpus.rename.fp_rename_lookups     15650086                       # Number of floating rename lookups
system.switch_cpus.rename.int_rename_lookups     19481292                       # Number of integer rename lookups
system.switch_cpus.rename.serializeStallCycles            0                       # count of cycles rename stalled for serializing inst
system.switch_cpus.rename.serializingInsts            1                       # count of serializing insts renamed
system.switch_cpus.rename.skidInsts           4410495                       # count of insts added to the skid buffer
system.switch_cpus.rename.tempSerializingInsts            1                       # count of temporary serializing insts renamed
system.switch_cpus.rob.rob_reads             37838661                       # The number of ROB reads
system.switch_cpus.rob.rob_writes            40413722                       # The number of ROB writes
system.switch_cpus.timesIdled                     633                       # Number of times that the entire CPU went into an idle state and unscheduled itself
system.tol2bus.snoop_filter.hit_multi_requests            0                       # Number of requests hitting in the snoop filter with multiple (>1) holders of the requested data.
system.tol2bus.snoop_filter.hit_multi_snoops            0                       # Number of snoops hitting in the snoop filter with multiple (>1) holders of the requested data.
system.tol2bus.snoop_filter.hit_single_requests       205701                       # Number of requests hitting in the snoop filter with a single holder of the requested data.
system.tol2bus.snoop_filter.hit_single_snoops        68622                       # Number of snoops hitting in the snoop filter with a single holder of the requested data.
system.tol2bus.snoop_filter.tot_requests       412890                       # Total number of requests made to the snoop filter.
system.tol2bus.snoop_filter.tot_snoops          68622                       # Total number of snoops made to the snoop filter.
system.membus.pwrStateResidencyTicks::UNDEFINED 359104406148500                       # Cumulative time (in ticks) in various power states
system.membus.trans_dist::ReadResp             182576                       # Transaction distribution
system.membus.trans_dist::WritebackDirty        17327                       # Transaction distribution
system.membus.trans_dist::CleanEvict           171692                       # Transaction distribution
system.membus.trans_dist::ReadExReq              8957                       # Transaction distribution
system.membus.trans_dist::ReadExResp             8957                       # Transaction distribution
system.membus.trans_dist::ReadSharedReq        182577                       # Transaction distribution
system.membus.pkt_count_system.l2.mem_side::system.mem_ctrls.port       572086                       # Packet count per connected master and slave (bytes)
system.membus.pkt_count_system.l2.mem_side::total       572086                       # Packet count per connected master and slave (bytes)
system.membus.pkt_count::total                 572086                       # Packet count per connected master and slave (bytes)
system.membus.pkt_size_system.l2.mem_side::system.mem_ctrls.port     13367040                       # Cumulative packet size per connected master and slave (bytes)
system.membus.pkt_size_system.l2.mem_side::total     13367040                       # Cumulative packet size per connected master and slave (bytes)
system.membus.pkt_size::total                13367040                       # Cumulative packet size per connected master and slave (bytes)
system.membus.snoops                                0                       # Total snoops (count)
system.membus.snoopTraffic                          0                       # Total snoop traffic (bytes)
system.membus.snoop_fanout::samples            191534                       # Request fanout histogram
system.membus.snoop_fanout::mean                    0                       # Request fanout histogram
system.membus.snoop_fanout::stdev                   0                       # Request fanout histogram
system.membus.snoop_fanout::underflows              0      0.00%      0.00% # Request fanout histogram
system.membus.snoop_fanout::0                  191534    100.00%    100.00% # Request fanout histogram
system.membus.snoop_fanout::1                       0      0.00%    100.00% # Request fanout histogram
system.membus.snoop_fanout::overflows               0      0.00%    100.00% # Request fanout histogram
system.membus.snoop_fanout::min_value               0                       # Request fanout histogram
system.membus.snoop_fanout::max_value               0                       # Request fanout histogram
system.membus.snoop_fanout::total              191534                       # Request fanout histogram
system.membus.reqLayer2.occupancy           486845500                       # Layer occupancy (ticks)
system.membus.reqLayer2.utilization               4.9                       # Layer utilization (%)
system.membus.respLayer1.occupancy         1026177250                       # Layer occupancy (ticks)
system.membus.respLayer1.utilization             10.4                       # Layer utilization (%)
system.switch_cpus.pwrStateResidencyTicks::OFF   9898308500                       # Cumulative time (in ticks) in various power states
system.switch_cpus.dtb.walker.pwrStateResidencyTicks::UNDEFINED 359104406148500                       # Cumulative time (in ticks) in various power states
system.switch_cpus.itb.walker.pwrStateResidencyTicks::UNDEFINED 359104406148500                       # Cumulative time (in ticks) in various power states
system.tol2bus.pwrStateResidencyTicks::UNDEFINED 359104406148500                       # Cumulative time (in ticks) in various power states
system.tol2bus.trans_dist::ReadResp            197143                       # Transaction distribution
system.tol2bus.trans_dist::WritebackDirty        38308                       # Transaction distribution
system.tol2bus.trans_dist::WritebackClean          482                       # Transaction distribution
system.tol2bus.trans_dist::CleanEvict          367327                       # Transaction distribution
system.tol2bus.trans_dist::ReadExReq            10044                       # Transaction distribution
system.tol2bus.trans_dist::ReadExResp           10044                       # Transaction distribution
system.tol2bus.trans_dist::ReadCleanReq           944                       # Transaction distribution
system.tol2bus.trans_dist::ReadSharedReq       196201                       # Transaction distribution
system.tol2bus.pkt_count_system.cpu.icache.mem_side::system.l2.cpu_side         2370                       # Packet count per connected master and slave (bytes)
system.tol2bus.pkt_count_system.cpu.dcache.mem_side::system.l2.cpu_side       617707                       # Packet count per connected master and slave (bytes)
system.tol2bus.pkt_count::total                620077                       # Packet count per connected master and slave (bytes)
system.tol2bus.pkt_size_system.cpu.icache.mem_side::system.l2.cpu_side        91264                       # Cumulative packet size per connected master and slave (bytes)
system.tol2bus.pkt_size_system.cpu.dcache.mem_side::system.l2.cpu_side     14542336                       # Cumulative packet size per connected master and slave (bytes)
system.tol2bus.pkt_size::total               14633600                       # Cumulative packet size per connected master and slave (bytes)
system.tol2bus.snoops                          200416                       # Total snoops (count)
system.tol2bus.snoopTraffic                   1108928                       # Total snoop traffic (bytes)
system.tol2bus.snoop_fanout::samples           407605                       # Request fanout histogram
system.tol2bus.snoop_fanout::mean            0.168354                       # Request fanout histogram
system.tol2bus.snoop_fanout::stdev           0.374181                       # Request fanout histogram
system.tol2bus.snoop_fanout::underflows             0      0.00%      0.00% # Request fanout histogram
system.tol2bus.snoop_fanout::0                 338983     83.16%     83.16% # Request fanout histogram
system.tol2bus.snoop_fanout::1                  68622     16.84%    100.00% # Request fanout histogram
system.tol2bus.snoop_fanout::2                      0      0.00%    100.00% # Request fanout histogram
system.tol2bus.snoop_fanout::3                      0      0.00%    100.00% # Request fanout histogram
system.tol2bus.snoop_fanout::4                      0      0.00%    100.00% # Request fanout histogram
system.tol2bus.snoop_fanout::overflows              0      0.00%    100.00% # Request fanout histogram
system.tol2bus.snoop_fanout::min_value              0                       # Request fanout histogram
system.tol2bus.snoop_fanout::max_value              1                       # Request fanout histogram
system.tol2bus.snoop_fanout::total             407605                       # Request fanout histogram
system.tol2bus.reqLayer0.occupancy          227905500                       # Layer occupancy (ticks)
system.tol2bus.reqLayer0.utilization              2.3                       # Layer utilization (%)
system.tol2bus.respLayer1.occupancy         309360000                       # Layer occupancy (ticks)
system.tol2bus.respLayer1.utilization             3.1                       # Layer utilization (%)
system.tol2bus.respLayer0.occupancy           1413000                       # Layer occupancy (ticks)
system.tol2bus.respLayer0.utilization             0.0                       # Layer utilization (%)
system.voltage_domain.voltage                       1                       # Voltage in Volts
system.clk_domain.clock                          1000                       # Clock period in ticks
system.l2.pwrStateResidencyTicks::UNDEFINED 359104406148500                       # Cumulative time (in ticks) in various power states
system.l2.demand_hits::.switch_cpus.inst           61                       # number of demand (read+write) hits
system.l2.demand_hits::.switch_cpus.data        15593                       # number of demand (read+write) hits
system.l2.demand_hits::total                    15654                       # number of demand (read+write) hits
system.l2.overall_hits::.switch_cpus.inst           61                       # number of overall hits
system.l2.overall_hits::.switch_cpus.data        15593                       # number of overall hits
system.l2.overall_hits::total                   15654                       # number of overall hits
system.l2.demand_misses::.cpu.inst                  2                       # number of demand (read+write) misses
system.l2.demand_misses::.cpu.data                  3                       # number of demand (read+write) misses
system.l2.demand_misses::.switch_cpus.inst          881                       # number of demand (read+write) misses
system.l2.demand_misses::.switch_cpus.data       190649                       # number of demand (read+write) misses
system.l2.demand_misses::total                 191535                       # number of demand (read+write) misses
system.l2.overall_misses::.cpu.inst                 2                       # number of overall misses
system.l2.overall_misses::.cpu.data                 3                       # number of overall misses
system.l2.overall_misses::.switch_cpus.inst          881                       # number of overall misses
system.l2.overall_misses::.switch_cpus.data       190649                       # number of overall misses
system.l2.overall_misses::total                191535                       # number of overall misses
system.l2.demand_miss_latency::.switch_cpus.inst     76900500                       # number of demand (read+write) miss cycles
system.l2.demand_miss_latency::.switch_cpus.data  16135883500                       # number of demand (read+write) miss cycles
system.l2.demand_miss_latency::total      16212784000                       # number of demand (read+write) miss cycles
system.l2.overall_miss_latency::.switch_cpus.inst     76900500                       # number of overall miss cycles
system.l2.overall_miss_latency::.switch_cpus.data  16135883500                       # number of overall miss cycles
system.l2.overall_miss_latency::total     16212784000                       # number of overall miss cycles
system.l2.demand_accesses::.cpu.inst                2                       # number of demand (read+write) accesses
system.l2.demand_accesses::.cpu.data                3                       # number of demand (read+write) accesses
system.l2.demand_accesses::.switch_cpus.inst          942                       # number of demand (read+write) accesses
system.l2.demand_accesses::.switch_cpus.data       206242                       # number of demand (read+write) accesses
system.l2.demand_accesses::total               207189                       # number of demand (read+write) accesses
system.l2.overall_accesses::.cpu.inst               2                       # number of overall (read+write) accesses
system.l2.overall_accesses::.cpu.data               3                       # number of overall (read+write) accesses
system.l2.overall_accesses::.switch_cpus.inst          942                       # number of overall (read+write) accesses
system.l2.overall_accesses::.switch_cpus.data       206242                       # number of overall (read+write) accesses
system.l2.overall_accesses::total              207189                       # number of overall (read+write) accesses
system.l2.demand_miss_rate::.cpu.inst               1                       # miss rate for demand accesses
system.l2.demand_miss_rate::.cpu.data               1                       # miss rate for demand accesses
system.l2.demand_miss_rate::.switch_cpus.inst     0.935244                       # miss rate for demand accesses
system.l2.demand_miss_rate::.switch_cpus.data     0.924395                       # miss rate for demand accesses
system.l2.demand_miss_rate::total            0.924446                       # miss rate for demand accesses
system.l2.overall_miss_rate::.cpu.inst              1                       # miss rate for overall accesses
system.l2.overall_miss_rate::.cpu.data              1                       # miss rate for overall accesses
system.l2.overall_miss_rate::.switch_cpus.inst     0.935244                       # miss rate for overall accesses
system.l2.overall_miss_rate::.switch_cpus.data     0.924395                       # miss rate for overall accesses
system.l2.overall_miss_rate::total           0.924446                       # miss rate for overall accesses
system.l2.demand_avg_miss_latency::.switch_cpus.inst 87287.741203                       # average overall miss latency
system.l2.demand_avg_miss_latency::.switch_cpus.data 84636.601818                       # average overall miss latency
system.l2.demand_avg_miss_latency::total 84646.586786                       # average overall miss latency
system.l2.overall_avg_miss_latency::.switch_cpus.inst 87287.741203                       # average overall miss latency
system.l2.overall_avg_miss_latency::.switch_cpus.data 84636.601818                       # average overall miss latency
system.l2.overall_avg_miss_latency::total 84646.586786                       # average overall miss latency
system.l2.blocked_cycles::no_mshrs                  0                       # number of cycles access was blocked
system.l2.blocked_cycles::no_targets                0                       # number of cycles access was blocked
system.l2.blocked::no_mshrs                         0                       # number of cycles access was blocked
system.l2.blocked::no_targets                       0                       # number of cycles access was blocked
system.l2.avg_blocked_cycles::no_mshrs            nan                       # average number of cycles each access was blocked
system.l2.avg_blocked_cycles::no_targets          nan                       # average number of cycles each access was blocked
system.l2.writebacks::.writebacks               17327                       # number of writebacks
system.l2.writebacks::total                     17327                       # number of writebacks
system.l2.demand_mshr_misses::.switch_cpus.inst          881                       # number of demand (read+write) MSHR misses
system.l2.demand_mshr_misses::.switch_cpus.data       190649                       # number of demand (read+write) MSHR misses
system.l2.demand_mshr_misses::total            191530                       # number of demand (read+write) MSHR misses
system.l2.overall_mshr_misses::.switch_cpus.inst          881                       # number of overall MSHR misses
system.l2.overall_mshr_misses::.switch_cpus.data       190649                       # number of overall MSHR misses
system.l2.overall_mshr_misses::total           191530                       # number of overall MSHR misses
system.l2.demand_mshr_miss_latency::.switch_cpus.inst     68090500                       # number of demand (read+write) MSHR miss cycles
system.l2.demand_mshr_miss_latency::.switch_cpus.data  14229413500                       # number of demand (read+write) MSHR miss cycles
system.l2.demand_mshr_miss_latency::total  14297504000                       # number of demand (read+write) MSHR miss cycles
system.l2.overall_mshr_miss_latency::.switch_cpus.inst     68090500                       # number of overall MSHR miss cycles
system.l2.overall_mshr_miss_latency::.switch_cpus.data  14229413500                       # number of overall MSHR miss cycles
system.l2.overall_mshr_miss_latency::total  14297504000                       # number of overall MSHR miss cycles
system.l2.demand_mshr_miss_rate::.switch_cpus.inst     0.935244                       # mshr miss rate for demand accesses
system.l2.demand_mshr_miss_rate::.switch_cpus.data     0.924395                       # mshr miss rate for demand accesses
system.l2.demand_mshr_miss_rate::total       0.924422                       # mshr miss rate for demand accesses
system.l2.overall_mshr_miss_rate::.switch_cpus.inst     0.935244                       # mshr miss rate for overall accesses
system.l2.overall_mshr_miss_rate::.switch_cpus.data     0.924395                       # mshr miss rate for overall accesses
system.l2.overall_mshr_miss_rate::total      0.924422                       # mshr miss rate for overall accesses
system.l2.demand_avg_mshr_miss_latency::.switch_cpus.inst 77287.741203                       # average overall mshr miss latency
system.l2.demand_avg_mshr_miss_latency::.switch_cpus.data 74636.706723                       # average overall mshr miss latency
system.l2.demand_avg_mshr_miss_latency::total 74648.900955                       # average overall mshr miss latency
system.l2.overall_avg_mshr_miss_latency::.switch_cpus.inst 77287.741203                       # average overall mshr miss latency
system.l2.overall_avg_mshr_miss_latency::.switch_cpus.data 74636.706723                       # average overall mshr miss latency
system.l2.overall_avg_mshr_miss_latency::total 74648.900955                       # average overall mshr miss latency
system.l2.replacements                         200416                       # number of replacements
system.l2.WritebackDirty_hits::.writebacks        20981                       # number of WritebackDirty hits
system.l2.WritebackDirty_hits::total            20981                       # number of WritebackDirty hits
system.l2.WritebackDirty_accesses::.writebacks        20981                       # number of WritebackDirty accesses(hits+misses)
system.l2.WritebackDirty_accesses::total        20981                       # number of WritebackDirty accesses(hits+misses)
system.l2.WritebackClean_hits::.writebacks          482                       # number of WritebackClean hits
system.l2.WritebackClean_hits::total              482                       # number of WritebackClean hits
system.l2.WritebackClean_accesses::.writebacks          482                       # number of WritebackClean accesses(hits+misses)
system.l2.WritebackClean_accesses::total          482                       # number of WritebackClean accesses(hits+misses)
system.l2.CleanEvict_mshr_misses::.writebacks        57225                       # number of CleanEvict MSHR misses
system.l2.CleanEvict_mshr_misses::total         57225                       # number of CleanEvict MSHR misses
system.l2.CleanEvict_mshr_miss_rate::.writebacks          inf                       # mshr miss rate for CleanEvict accesses
system.l2.CleanEvict_mshr_miss_rate::total          inf                       # mshr miss rate for CleanEvict accesses
system.l2.ReadExReq_hits::.switch_cpus.data         1087                       # number of ReadExReq hits
system.l2.ReadExReq_hits::total                  1087                       # number of ReadExReq hits
system.l2.ReadExReq_misses::.switch_cpus.data         8957                       # number of ReadExReq misses
system.l2.ReadExReq_misses::total                8957                       # number of ReadExReq misses
system.l2.ReadExReq_miss_latency::.switch_cpus.data    739800000                       # number of ReadExReq miss cycles
system.l2.ReadExReq_miss_latency::total     739800000                       # number of ReadExReq miss cycles
system.l2.ReadExReq_accesses::.switch_cpus.data        10044                       # number of ReadExReq accesses(hits+misses)
system.l2.ReadExReq_accesses::total             10044                       # number of ReadExReq accesses(hits+misses)
system.l2.ReadExReq_miss_rate::.switch_cpus.data     0.891776                       # miss rate for ReadExReq accesses
system.l2.ReadExReq_miss_rate::total         0.891776                       # miss rate for ReadExReq accesses
system.l2.ReadExReq_avg_miss_latency::.switch_cpus.data 82594.618734                       # average ReadExReq miss latency
system.l2.ReadExReq_avg_miss_latency::total 82594.618734                       # average ReadExReq miss latency
system.l2.ReadExReq_mshr_misses::.switch_cpus.data         8957                       # number of ReadExReq MSHR misses
system.l2.ReadExReq_mshr_misses::total           8957                       # number of ReadExReq MSHR misses
system.l2.ReadExReq_mshr_miss_latency::.switch_cpus.data    650230000                       # number of ReadExReq MSHR miss cycles
system.l2.ReadExReq_mshr_miss_latency::total    650230000                       # number of ReadExReq MSHR miss cycles
system.l2.ReadExReq_mshr_miss_rate::.switch_cpus.data     0.891776                       # mshr miss rate for ReadExReq accesses
system.l2.ReadExReq_mshr_miss_rate::total     0.891776                       # mshr miss rate for ReadExReq accesses
system.l2.ReadExReq_avg_mshr_miss_latency::.switch_cpus.data 72594.618734                       # average ReadExReq mshr miss latency
system.l2.ReadExReq_avg_mshr_miss_latency::total 72594.618734                       # average ReadExReq mshr miss latency
system.l2.ReadCleanReq_hits::.switch_cpus.inst           61                       # number of ReadCleanReq hits
system.l2.ReadCleanReq_hits::total                 61                       # number of ReadCleanReq hits
system.l2.ReadCleanReq_misses::.cpu.inst            2                       # number of ReadCleanReq misses
system.l2.ReadCleanReq_misses::.switch_cpus.inst          881                       # number of ReadCleanReq misses
system.l2.ReadCleanReq_misses::total              883                       # number of ReadCleanReq misses
system.l2.ReadCleanReq_miss_latency::.switch_cpus.inst     76900500                       # number of ReadCleanReq miss cycles
system.l2.ReadCleanReq_miss_latency::total     76900500                       # number of ReadCleanReq miss cycles
system.l2.ReadCleanReq_accesses::.cpu.inst            2                       # number of ReadCleanReq accesses(hits+misses)
system.l2.ReadCleanReq_accesses::.switch_cpus.inst          942                       # number of ReadCleanReq accesses(hits+misses)
system.l2.ReadCleanReq_accesses::total            944                       # number of ReadCleanReq accesses(hits+misses)
system.l2.ReadCleanReq_miss_rate::.cpu.inst            1                       # miss rate for ReadCleanReq accesses
system.l2.ReadCleanReq_miss_rate::.switch_cpus.inst     0.935244                       # miss rate for ReadCleanReq accesses
system.l2.ReadCleanReq_miss_rate::total      0.935381                       # miss rate for ReadCleanReq accesses
system.l2.ReadCleanReq_avg_miss_latency::.switch_cpus.inst 87287.741203                       # average ReadCleanReq miss latency
[...]
system.cpu.icache.tags.data_accesses         14034049                       # Number of data accesses
system.cpu.dtb.walker.pwrStateResidencyTicks::UNDEFINED 359134390907500                       # Cumulative time (in ticks) in various power states
system.cpu.interrupts.clk_domain.clock           8000                       # Clock period in ticks
system.cpu.itb_walker_cache.pwrStateResidencyTicks::UNDEFINED 359134390907500                       # Cumulative time (in ticks) in various power states
system.cpu.itb_walker_cache.blocked_cycles::no_mshrs            0                       # number of cycles access was blocked
system.cpu.itb_walker_cache.blocked_cycles::no_targets            0                       # number of cycles access was blocked
system.cpu.itb_walker_cache.blocked::no_mshrs            0                       # number of cycles access was blocked
system.cpu.itb_walker_cache.blocked::no_targets            0                       # number of cycles access was blocked
system.cpu.itb_walker_cache.avg_blocked_cycles::no_mshrs          nan                       # average number of cycles each access was blocked
system.cpu.itb_walker_cache.avg_blocked_cycles::no_targets          nan                       # average number of cycles each access was blocked
system.cpu.itb_walker_cache.replacements            0                       # number of replacements
system.cpu.itb_walker_cache.tags.pwrStateResidencyTicks::UNDEFINED 359134390907500                       # Cumulative time (in ticks) in various power states
system.cpu.itb_walker_cache.tags.tagsinuse            0                       # Cycle average of tags in use
system.cpu.itb_walker_cache.tags.total_refs            0                       # Total number of references to valid blocks.
system.cpu.itb_walker_cache.tags.sampled_refs            0                       # Sample count of references to valid blocks.
system.cpu.itb_walker_cache.tags.avg_refs          nan                       # Average number of references to valid blocks.
system.cpu.itb_walker_cache.tags.warmup_cycle            0                       # Cycle when the warmup percentage was hit.
system.cpu.itb_walker_cache.tags.tag_accesses            0                       # Number of tag accesses
system.cpu.itb_walker_cache.tags.data_accesses            0                       # Number of data accesses
system.cpu.itb.walker.pwrStateResidencyTicks::UNDEFINED 359134390907500                       # Cumulative time (in ticks) in various power states
system.cpu.dtb_walker_cache.pwrStateResidencyTicks::UNDEFINED 359134390907500                       # Cumulative time (in ticks) in various power states
system.cpu.dtb_walker_cache.blocked_cycles::no_mshrs            0                       # number of cycles access was blocked
system.cpu.dtb_walker_cache.blocked_cycles::no_targets            0                       # number of cycles access was blocked
system.cpu.dtb_walker_cache.blocked::no_mshrs            0                       # number of cycles access was blocked
system.cpu.dtb_walker_cache.blocked::no_targets            0                       # number of cycles access was blocked
system.cpu.dtb_walker_cache.avg_blocked_cycles::no_mshrs          nan                       # average number of cycles each access was blocked
system.cpu.dtb_walker_cache.avg_blocked_cycles::no_targets          nan                       # average number of cycles each access was blocked
system.cpu.dtb_walker_cache.replacements            0                       # number of replacements
system.cpu.dtb_walker_cache.tags.pwrStateResidencyTicks::UNDEFINED 359134390907500                       # Cumulative time (in ticks) in various power states
system.cpu.dtb_walker_cache.tags.tagsinuse            0                       # Cycle average of tags in use
system.cpu.dtb_walker_cache.tags.total_refs            0                       # Total number of references to valid blocks.
system.cpu.dtb_walker_cache.tags.sampled_refs            0                       # Sample count of references to valid blocks.
system.cpu.dtb_walker_cache.tags.avg_refs          nan                       # Average number of references to valid blocks.
system.cpu.dtb_walker_cache.tags.warmup_cycle            0                       # Cycle when the warmup percentage was hit.
system.cpu.dtb_walker_cache.tags.tag_accesses            0                       # Number of tag accesses
system.cpu.dtb_walker_cache.tags.data_accesses            0                       # Number of data accesses
system.cpu.dcache.pwrStateResidencyTicks::UNDEFINED 359134390907500                       # Cumulative time (in ticks) in various power states
system.cpu.dcache.demand_hits::.cpu.data            1                       # number of demand (read+write) hits
system.cpu.dcache.demand_hits::.switch_cpus.data     10721414                       # number of demand (read+write) hits
system.cpu.dcache.demand_hits::total         10721415                       # number of demand (read+write) hits
system.cpu.dcache.overall_hits::.cpu.data            1                       # number of overall hits
system.cpu.dcache.overall_hits::.switch_cpus.data     10721414                       # number of overall hits
system.cpu.dcache.overall_hits::total        10721415                       # number of overall hits
system.cpu.dcache.demand_misses::.cpu.data            3                       # number of demand (read+write) misses
system.cpu.dcache.demand_misses::.switch_cpus.data      3244019                       # number of demand (read+write) misses
system.cpu.dcache.demand_misses::total        3244022                       # number of demand (read+write) misses
system.cpu.dcache.overall_misses::.cpu.data            3                       # number of overall misses
system.cpu.dcache.overall_misses::.switch_cpus.data      3244019                       # number of overall misses
system.cpu.dcache.overall_misses::total       3244022                       # number of overall misses
system.cpu.dcache.demand_miss_latency::.switch_cpus.data 227189426721                       # number of demand (read+write) miss cycles
system.cpu.dcache.demand_miss_latency::total 227189426721                       # number of demand (read+write) miss cycles
system.cpu.dcache.overall_miss_latency::.switch_cpus.data 227189426721                       # number of overall miss cycles
system.cpu.dcache.overall_miss_latency::total 227189426721                       # number of overall miss cycles
system.cpu.dcache.demand_accesses::.cpu.data            4                       # number of demand (read+write) accesses
system.cpu.dcache.demand_accesses::.switch_cpus.data     13965433                       # number of demand (read+write) accesses
system.cpu.dcache.demand_accesses::total     13965437                       # number of demand (read+write) accesses
system.cpu.dcache.overall_accesses::.cpu.data            4                       # number of overall (read+write) accesses
system.cpu.dcache.overall_accesses::.switch_cpus.data     13965433                       # number of overall (read+write) accesses
system.cpu.dcache.overall_accesses::total     13965437                       # number of overall (read+write) accesses
system.cpu.dcache.demand_miss_rate::.cpu.data     0.750000                       # miss rate for demand accesses
system.cpu.dcache.demand_miss_rate::.switch_cpus.data     0.232289                       # miss rate for demand accesses
system.cpu.dcache.demand_miss_rate::total     0.232289                       # miss rate for demand accesses
system.cpu.dcache.overall_miss_rate::.cpu.data     0.750000                       # miss rate for overall accesses
system.cpu.dcache.overall_miss_rate::.switch_cpus.data     0.232289                       # miss rate for overall accesses
system.cpu.dcache.overall_miss_rate::total     0.232289                       # miss rate for overall accesses
system.cpu.dcache.demand_avg_miss_latency::.switch_cpus.data 70033.321852                       # average overall miss latency
system.cpu.dcache.demand_avg_miss_latency::total 70033.257087                       # average overall miss latency
system.cpu.dcache.overall_avg_miss_latency::.switch_cpus.data 70033.321852                       # average overall miss latency
system.cpu.dcache.overall_avg_miss_latency::total 70033.257087                       # average overall miss latency
system.cpu.dcache.blocked_cycles::no_mshrs      6797825                       # number of cycles access was blocked
system.cpu.dcache.blocked_cycles::no_targets            0                       # number of cycles access was blocked
system.cpu.dcache.blocked::no_mshrs            137419                       # number of cycles access was blocked
system.cpu.dcache.blocked::no_targets               0                       # number of cycles access was blocked
system.cpu.dcache.avg_blocked_cycles::no_mshrs    49.467868                       # average number of cycles each access was blocked
system.cpu.dcache.avg_blocked_cycles::no_targets          nan                       # average number of cycles each access was blocked
system.cpu.dcache.writebacks::.writebacks        89725                       # number of writebacks
system.cpu.dcache.writebacks::total             89725                       # number of writebacks
system.cpu.dcache.demand_mshr_hits::.switch_cpus.data      2411158                       # number of demand (read+write) MSHR hits
system.cpu.dcache.demand_mshr_hits::total      2411158                       # number of demand (read+write) MSHR hits
system.cpu.dcache.overall_mshr_hits::.switch_cpus.data      2411158                       # number of overall MSHR hits
system.cpu.dcache.overall_mshr_hits::total      2411158                       # number of overall MSHR hits
system.cpu.dcache.demand_mshr_misses::.switch_cpus.data       832861                       # number of demand (read+write) MSHR misses
system.cpu.dcache.demand_mshr_misses::total       832861                       # number of demand (read+write) MSHR misses
system.cpu.dcache.overall_mshr_misses::.switch_cpus.data       832861                       # number of overall MSHR misses
system.cpu.dcache.overall_mshr_misses::total       832861                       # number of overall MSHR misses
system.cpu.dcache.demand_mshr_miss_latency::.switch_cpus.data  67038059227                       # number of demand (read+write) MSHR miss cycles
system.cpu.dcache.demand_mshr_miss_latency::total  67038059227                       # number of demand (read+write) MSHR miss cycles
system.cpu.dcache.overall_mshr_miss_latency::.switch_cpus.data  67038059227                       # number of overall MSHR miss cycles
system.cpu.dcache.overall_mshr_miss_latency::total  67038059227                       # number of overall MSHR miss cycles
system.cpu.dcache.demand_mshr_miss_rate::.switch_cpus.data     0.059637                       # mshr miss rate for demand accesses
system.cpu.dcache.demand_mshr_miss_rate::total     0.059637                       # mshr miss rate for demand accesses
system.cpu.dcache.overall_mshr_miss_rate::.switch_cpus.data     0.059637                       # mshr miss rate for overall accesses
system.cpu.dcache.overall_mshr_miss_rate::total     0.059637                       # mshr miss rate for overall accesses
system.cpu.dcache.demand_avg_mshr_miss_latency::.switch_cpus.data 80491.293538                       # average overall mshr miss latency
system.cpu.dcache.demand_avg_mshr_miss_latency::total 80491.293538                       # average overall mshr miss latency
system.cpu.dcache.overall_avg_mshr_miss_latency::.switch_cpus.data 80491.293538                       # average overall mshr miss latency
system.cpu.dcache.overall_avg_mshr_miss_latency::total 80491.293538                       # average overall mshr miss latency
system.cpu.dcache.replacements                 831840                       # number of replacements
system.cpu.dcache.ReadReq_hits::.cpu.data            1                       # number of ReadReq hits
system.cpu.dcache.ReadReq_hits::.switch_cpus.data      9383560                       # number of ReadReq hits
system.cpu.dcache.ReadReq_hits::total         9383561                       # number of ReadReq hits
system.cpu.dcache.ReadReq_misses::.cpu.data            3                       # number of ReadReq misses
system.cpu.dcache.ReadReq_misses::.switch_cpus.data      3202600                       # number of ReadReq misses
system.cpu.dcache.ReadReq_misses::total       3202603                       # number of ReadReq misses
system.cpu.dcache.ReadReq_miss_latency::.switch_cpus.data 223990946500                       # number of ReadReq miss cycles
system.cpu.dcache.ReadReq_miss_latency::total 223990946500                       # number of ReadReq miss cycles
system.cpu.dcache.ReadReq_accesses::.cpu.data            4                       # number of ReadReq accesses(hits+misses)
system.cpu.dcache.ReadReq_accesses::.switch_cpus.data     12586160                       # number of ReadReq accesses(hits+misses)
system.cpu.dcache.ReadReq_accesses::total     12586164                       # number of ReadReq accesses(hits+misses)
system.cpu.dcache.ReadReq_miss_rate::.cpu.data     0.750000                       # miss rate for ReadReq accesses
system.cpu.dcache.ReadReq_miss_rate::.switch_cpus.data     0.254454                       # miss rate for ReadReq accesses
system.cpu.dcache.ReadReq_miss_rate::total     0.254454                       # miss rate for ReadReq accesses
system.cpu.dcache.ReadReq_avg_miss_latency::.switch_cpus.data 69940.344252                       # average ReadReq miss latency
system.cpu.dcache.ReadReq_avg_miss_latency::total 69940.278736                       # average ReadReq miss latency
system.cpu.dcache.ReadReq_mshr_hits::.switch_cpus.data      2410832                       # number of ReadReq MSHR hits
system.cpu.dcache.ReadReq_mshr_hits::total      2410832                       # number of ReadReq MSHR hits
system.cpu.dcache.ReadReq_mshr_misses::.switch_cpus.data       791768                       # number of ReadReq MSHR misses
system.cpu.dcache.ReadReq_mshr_misses::total       791768                       # number of ReadReq MSHR misses
system.cpu.dcache.ReadReq_mshr_miss_latency::.switch_cpus.data  63898862000                       # number of ReadReq MSHR miss cycles
system.cpu.dcache.ReadReq_mshr_miss_latency::total  63898862000                       # number of ReadReq MSHR miss cycles
system.cpu.dcache.ReadReq_mshr_miss_rate::.switch_cpus.data     0.062908                       # mshr miss rate for ReadReq accesses
system.cpu.dcache.ReadReq_mshr_miss_rate::total     0.062908                       # mshr miss rate for ReadReq accesses
system.cpu.dcache.ReadReq_avg_mshr_miss_latency::.switch_cpus.data 80704.021885                       # average ReadReq mshr miss latency
system.cpu.dcache.ReadReq_avg_mshr_miss_latency::total 80704.021885                       # average ReadReq mshr miss latency
system.cpu.dcache.WriteReq_hits::.switch_cpus.data      1337854                       # number of WriteReq hits
system.cpu.dcache.WriteReq_hits::total        1337854                       # number of WriteReq hits
system.cpu.dcache.WriteReq_misses::.switch_cpus.data        41419                       # number of WriteReq misses
system.cpu.dcache.WriteReq_misses::total        41419                       # number of WriteReq misses
system.cpu.dcache.WriteReq_miss_latency::.switch_cpus.data   3198480221                       # number of WriteReq miss cycles
system.cpu.dcache.WriteReq_miss_latency::total   3198480221                       # number of WriteReq miss cycles
system.cpu.dcache.WriteReq_accesses::.switch_cpus.data      1379273                       # number of WriteReq accesses(hits+misses)
system.cpu.dcache.WriteReq_accesses::total      1379273                       # number of WriteReq accesses(hits+misses)
system.cpu.dcache.WriteReq_miss_rate::.switch_cpus.data     0.030030                       # miss rate for WriteReq accesses
system.cpu.dcache.WriteReq_miss_rate::total     0.030030                       # miss rate for WriteReq accesses
system.cpu.dcache.WriteReq_avg_miss_latency::.switch_cpus.data 77222.536058                       # average WriteReq miss latency
system.cpu.dcache.WriteReq_avg_miss_latency::total 77222.536058                       # average WriteReq miss latency
system.cpu.dcache.WriteReq_mshr_hits::.switch_cpus.data          326                       # number of WriteReq MSHR hits
system.cpu.dcache.WriteReq_mshr_hits::total          326                       # number of WriteReq MSHR hits
system.cpu.dcache.WriteReq_mshr_misses::.switch_cpus.data        41093                       # number of WriteReq MSHR misses
system.cpu.dcache.WriteReq_mshr_misses::total        41093                       # number of WriteReq MSHR misses
system.cpu.dcache.WriteReq_mshr_miss_latency::.switch_cpus.data   3139197227                       # number of WriteReq MSHR miss cycles
system.cpu.dcache.WriteReq_mshr_miss_latency::total   3139197227                       # number of WriteReq MSHR miss cycles
system.cpu.dcache.WriteReq_mshr_miss_rate::.switch_cpus.data     0.029793                       # mshr miss rate for WriteReq accesses
system.cpu.dcache.WriteReq_mshr_miss_rate::total     0.029793                       # mshr miss rate for WriteReq accesses
system.cpu.dcache.WriteReq_avg_mshr_miss_latency::.switch_cpus.data 76392.505463                       # average WriteReq mshr miss latency
system.cpu.dcache.WriteReq_avg_mshr_miss_latency::total 76392.505463                       # average WriteReq mshr miss latency
system.cpu.dcache.tags.pwrStateResidencyTicks::UNDEFINED 359134390907500                       # Cumulative time (in ticks) in various power states
system.cpu.dcache.tags.tagsinuse             0.113639                       # Cycle average of tags in use
system.cpu.dcache.tags.total_refs            11554279                       # Total number of references to valid blocks.
system.cpu.dcache.tags.sampled_refs            832864                       # Sample count of references to valid blocks.
system.cpu.dcache.tags.avg_refs             13.872948                       # Average number of references to valid blocks.
system.cpu.dcache.tags.warmup_cycle      359094507845000                       # Cycle when the warmup percentage was hit.
system.cpu.dcache.tags.occ_blocks::.cpu.data     0.000002                       # Average occupied blocks per requestor
system.cpu.dcache.tags.occ_blocks::.switch_cpus.data     0.113637                       # Average occupied blocks per requestor
system.cpu.dcache.tags.occ_percent::.cpu.data     0.000000                       # Average percentage of cache occupancy
system.cpu.dcache.tags.occ_percent::.switch_cpus.data     0.000111                       # Average percentage of cache occupancy
system.cpu.dcache.tags.occ_percent::total     0.000111                       # Average percentage of cache occupancy
system.cpu.dcache.tags.occ_task_id_blocks::1024         1024                       # Occupied blocks per task id
system.cpu.dcache.tags.age_task_id_blocks_1024::0          214                       # Occupied blocks per task id
system.cpu.dcache.tags.age_task_id_blocks_1024::1          706                       # Occupied blocks per task id
system.cpu.dcache.tags.age_task_id_blocks_1024::2          104                       # Occupied blocks per task id
system.cpu.dcache.tags.occ_task_id_percent::1024            1                       # Percentage of cache occupancy per task id
system.cpu.dcache.tags.tag_accesses          28763738                       # Number of tag accesses
system.cpu.dcache.tags.data_accesses         28763738                       # Number of data accesses

---------- End Simulation Statistics   ----------
