
---------- Begin Simulation Statistics ----------
final_tick                               92800489918500                       # Number of ticks from beginning of simulation (restored from checkpoints and never reset)
host_inst_rate                                  41574                       # Simulator instruction rate (inst/s)
host_mem_usage                                 828724                       # Number of bytes of host memory used
host_op_rate                                    67369                       # Simulator op (including micro ops) rate (op/s)
host_seconds                                   240.54                       # Real time elapsed on the host
host_tick_rate                               80630567                       # Simulator tick rate (ticks/s)
sim_freq                                 1000000000000                       # Frequency of simulated ticks
sim_insts                                    10000010                       # Number of instructions simulated
sim_ops                                      16204568                       # Number of ops (including micro ops) simulated
sim_seconds                                  0.019394                       # Number of seconds simulated
sim_ticks                                 19394492250                       # Number of ticks simulated
system.cpu.Branches                                 3                       # Number of branches fetched
system.cpu.committedInsts                          10                       # Number of instructions committed
system.cpu.committedOps                            18                       # Number of ops (including micro ops) committed
system.cpu.dtb.rdAccesses                           4                       # TLB accesses on read requests
system.cpu.dtb.rdMisses                             0                       # TLB misses on read requests
system.cpu.dtb.wrAccesses                           0                       # TLB accesses on write requests
system.cpu.dtb.wrMisses                             0                       # TLB misses on write requests
system.cpu.idle_fraction                            0                       # Percentage of idle cycles
system.cpu.itb.rdAccesses                           0                       # TLB accesses on read requests
system.cpu.itb.rdMisses                             0                       # TLB misses on read requests
system.cpu.itb.wrAccesses                          13                       # TLB accesses on write requests
system.cpu.itb.wrMisses                             0                       # TLB misses on write requests
system.cpu.not_idle_fraction                        1                       # Percentage of non-idle cycles
system.cpu.numCycles                               21                       # number of cpu cycles simulated
system.cpu.numWorkItemsCompleted                    0                       # number of work items this cpu completed
system.cpu.numWorkItemsStarted                      0                       # number of work items this cpu started
system.cpu.num_busy_cycles                         21                       # Number of busy cycles
system.cpu.num_cc_register_reads                   16                       # number of times the CC registers were read
system.cpu.num_cc_register_writes                   8                       # number of times the CC registers were written
system.cpu.num_conditional_control_insts            3                       # number of instructions that are conditional controls
system.cpu.num_fp_alu_accesses                      0                       # Number of float alu accesses
system.cpu.num_fp_insts                             0                       # number of float instructions
system.cpu.num_fp_register_reads                    0                       # number of times the floating registers were read
system.cpu.num_fp_register_writes                   0                       # number of times the floating registers were written
system.cpu.num_func_calls                           0                       # number of times a function call or return occured
system.cpu.num_idle_cycles                          0                       # Number of idle cycles
system.cpu.num_int_alu_accesses                    18                       # Number of integer alu accesses
system.cpu.num_int_insts                           18                       # number of integer instructions
system.cpu.num_int_register_reads                  33                       # number of times the integer registers were read
system.cpu.num_int_register_writes                 15                       # number of times the integer registers were written
system.cpu.num_load_insts                           4                       # Number of load instructions
system.cpu.num_mem_refs                             4                       # number of memory refs
system.cpu.num_store_insts                          0                       # Number of store instructions
system.cpu.num_vec_alu_accesses                     0                       # Number of vector alu accesses
system.cpu.num_vec_insts                            0                       # number of vector instructions
system.cpu.num_vec_register_reads                   0                       # number of times the vector registers were read
system.cpu.num_vec_register_writes                  0                       # number of times the vector registers were written
system.cpu.op_class::No_OpClass                     0      0.00%      0.00% # Class of executed instruction
system.cpu.op_class::IntAlu                        14     77.78%     77.78% # Class of executed instruction
system.cpu.op_class::IntMult                        0      0.00%     77.78% # Class of executed instruction
system.cpu.op_class::IntDiv                         0      0.00%     77.78% # Class of executed instruction
system.cpu.op_class::FloatAdd                       0      0.00%     77.78% # Class of executed instruction
system.cpu.op_class::FloatCmp                       0      0.00%     77.78% # Class of executed instruction
system.cpu.op_class::FloatCvt                       0      0.00%     77.78% # Class of executed instruction
system.cpu.op_class::FloatMult                      0      0.00%     77.78% # Class of executed instruction
system.cpu.op_class::FloatMultAcc                   0      0.00%     77.78% # Class of executed instruction
system.cpu.op_class::FloatDiv                       0      0.00%     77.78% # Class of executed instruction
system.cpu.op_class::FloatMisc                      0      0.00%     77.78% # Class of executed instruction
system.cpu.op_class::FloatSqrt                      0      0.00%     77.78% # Class of executed instruction
system.cpu.op_class::SimdAdd                        0      0.00%     77.78% # Class of executed instruction
system.cpu.op_class::SimdAddAcc                     0      0.00%     77.78% # Class of executed instruction
system.cpu.op_class::SimdAlu                        0      0.00%     77.78% # Class of executed instruction
system.cpu.op_class::SimdCmp                        0      0.00%     77.78% # Class of executed instruction
system.cpu.op_class::SimdCvt                        0      0.00%     77.78% # Class of executed instruction
system.cpu.op_class::SimdMisc                       0      0.00%     77.78% # Class of executed instruction
system.cpu.op_class::SimdMult                       0      0.00%     77.78% # Class of executed instruction
system.cpu.op_class::SimdMultAcc                    0      0.00%     77.78% # Class of executed instruction
system.cpu.op_class::SimdShift                      0      0.00%     77.78% # Class of executed instruction
system.cpu.op_class::SimdShiftAcc                   0      0.00%     77.78% # Class of executed instruction
system.cpu.op_class::SimdDiv                        0      0.00%     77.78% # Class of executed instruction
system.cpu.op_class::SimdSqrt                       0      0.00%     77.78% # Class of executed instruction
system.cpu.op_class::SimdFloatAdd                   0      0.00%     77.78% # Class of executed instruction
system.cpu.op_class::SimdFloatAlu                   0      0.00%     77.78% # Class of executed instruction
system.cpu.op_class::SimdFloatCmp                   0      0.00%     77.78% # Class of executed instruction
system.cpu.op_class::SimdFloatCvt                   0      0.00%     77.78% # Class of executed instruction
system.cpu.op_class::SimdFloatDiv                   0      0.00%     77.78% # Class of executed instruction
system.cpu.op_class::SimdFloatMisc                  0      0.00%     77.78% # Class of executed instruction
system.cpu.op_class::SimdFloatMult                  0      0.00%     77.78% # Class of executed instruction
system.cpu.op_class::SimdFloatMultAcc               0      0.00%     77.78% # Class of executed instruction
system.cpu.op_class::SimdFloatSqrt                  0      0.00%     77.78% # Class of executed instruction
system.cpu.op_class::SimdReduceAdd                  0      0.00%     77.78% # Class of executed instruction
system.cpu.op_class::SimdReduceAlu                  0      0.00%     77.78% # Class of executed instruction
system.cpu.op_class::SimdReduceCmp                  0      0.00%     77.78% # Class of executed instruction
system.cpu.op_class::SimdFloatReduceAdd             0      0.00%     77.78% # Class of executed instruction
system.cpu.op_class::SimdFloatReduceCmp             0      0.00%     77.78% # Class of executed instruction
system.cpu.op_class::SimdAes                        0      0.00%     77.78% # Class of executed instruction
system.cpu.op_class::SimdAesMix                     0      0.00%     77.78% # Class of executed instruction
system.cpu.op_class::SimdSha1Hash                   0      0.00%     77.78% # Class of executed instruction
system.cpu.op_class::SimdSha1Hash2                  0      0.00%     77.78% # Class of executed instruction
system.cpu.op_class::SimdSha256Hash                 0      0.00%     77.78% # Class of executed instruction
system.cpu.op_class::SimdSha256Hash2                0      0.00%     77.78% # Class of executed instruction
system.cpu.op_class::SimdShaSigma2                  0      0.00%     77.78% # Class of executed instruction
system.cpu.op_class::SimdShaSigma3                  0      0.00%     77.78% # Class of executed instruction
system.cpu.op_class::SimdPredAlu                    0      0.00%     77.78% # Class of executed instruction
system.cpu.op_class::MemRead                        4     22.22%    100.00% # Class of executed instruction
system.cpu.op_class::MemWrite                       0      0.00%    100.00% # Class of executed instruction
system.cpu.op_class::FloatMemRead                   0      0.00%    100.00% # Class of executed instruction
system.cpu.op_class::FloatMemWrite                  0      0.00%    100.00% # Class of executed instruction
system.cpu.op_class::IprAccess                      0      0.00%    100.00% # Class of executed instruction
system.cpu.op_class::InstPrefetch                   0      0.00%    100.00% # Class of executed instruction
system.cpu.op_class::total                         18                       # Class of executed instruction
system.cpu.workload.numSyscalls                     0                       # Number of system calls
system.membus.snoop_filter.hit_multi_requests            0                       # Number of requests hitting in the snoop filter with multiple (>1) holders of the requested data.
system.membus.snoop_filter.hit_multi_snoops            0                       # Number of snoops hitting in the snoop filter with multiple (>1) holders of the requested data.
system.membus.snoop_filter.hit_single_requests       168011                       # Number of requests hitting in the snoop filter with a single holder of the requested data.
system.membus.snoop_filter.hit_single_snoops            0                       # Number of snoops hitting in the snoop filter with a single holder of the requested data.
system.membus.snoop_filter.tot_requests        344234                       # Total number of requests made to the snoop filter.
system.membus.snoop_filter.tot_snoops               0                       # Total number of snoops made to the snoop filter.
system.switch_cpus.branchPred.BTBCorrect            0                       # Number of correct BTB predictions (this stat may not work properly.
system.switch_cpus.branchPred.BTBHitPct      0.000000                       # BTB Hit Percentage
system.switch_cpus.branchPred.BTBHits               0                       # Number of BTB hits
system.switch_cpus.branchPred.BTBLookups      1976364                       # Number of BTB lookups
system.switch_cpus.branchPred.RASInCorrect            1                       # Number of incorrect RAS predictions.
system.switch_cpus.branchPred.condIncorrect       177972                       # Number of conditional branches incorrect
system.switch_cpus.branchPred.condPredicted      4239780                       # Number of conditional branches predicted
system.switch_cpus.branchPred.indirectHits      1574990                       # Number of indirect target hits.
system.switch_cpus.branchPred.indirectLookups      1976364                       # Number of indirect predictor lookups.
system.switch_cpus.branchPred.indirectMisses       401374                       # Number of indirect misses.
system.switch_cpus.branchPred.lookups         4246864                       # Number of BP lookups
system.switch_cpus.branchPred.usedRAS             182                       # Number of times the RAS was used to get a target.
system.switch_cpus.branchPredindirectMispredicted        25050                       # Number of mispredicted indirect branches.
system.switch_cpus.cc_regfile_reads          13253200                       # number of cc regfile reads
system.switch_cpus.cc_regfile_writes          9623422                       # number of cc regfile writes
system.switch_cpus.commit.amos                      0                       # Number of atomic instructions committed
system.switch_cpus.commit.branchMispredicts       177974                       # The number of times a branch was mispredicted
system.switch_cpus.commit.branches            1904056                       # Number of branches committed
system.switch_cpus.commit.bw_lim_events        639132                       # number cycles where commit BW limit reached
system.switch_cpus.commit.commitSquashedInsts     14070601                       # The number of squashed insts skipped by commit
system.switch_cpus.commit.committedInsts     10000000                       # Number of instructions committed
system.switch_cpus.commit.committedOps       16204550                       # Number of ops (including micro ops) committed
system.switch_cpus.commit.committed_per_cycle::samples     36828335                       # Number of insts commited each cycle
system.switch_cpus.commit.committed_per_cycle::mean     0.440002                       # Number of insts commited each cycle
system.switch_cpus.commit.committed_per_cycle::stdev     1.345997                       # Number of insts commited each cycle
system.switch_cpus.commit.committed_per_cycle::underflows            0      0.00%      0.00% # Number of insts commited each cycle
system.switch_cpus.commit.committed_per_cycle::0     31074647     84.38%     84.38% # Number of insts commited each cycle
system.switch_cpus.commit.committed_per_cycle::1      2073924      5.63%     90.01% # Number of insts commited each cycle
system.switch_cpus.commit.committed_per_cycle::2      1407879      3.82%     93.83% # Number of insts commited each cycle
system.switch_cpus.commit.committed_per_cycle::3       790705      2.15%     95.98% # Number of insts commited each cycle
system.switch_cpus.commit.committed_per_cycle::4       592283      1.61%     97.59% # Number of insts commited each cycle
system.switch_cpus.commit.committed_per_cycle::5        76117      0.21%     97.79% # Number of insts commited each cycle
system.switch_cpus.commit.committed_per_cycle::6       135556      0.37%     98.16% # Number of insts commited each cycle
system.switch_cpus.commit.committed_per_cycle::7        38092      0.10%     98.26% # Number of insts commited each cycle
system.switch_cpus.commit.committed_per_cycle::8       639132      1.74%    100.00% # Number of insts commited each cycle
system.switch_cpus.commit.committed_per_cycle::overflows            0      0.00%    100.00% # Number of insts commited each cycle
system.switch_cpus.commit.committed_per_cycle::min_value            0                       # Number of insts commited each cycle
system.switch_cpus.commit.committed_per_cycle::max_value            8                       # Number of insts commited each cycle
system.switch_cpus.commit.committed_per_cycle::total     36828335                       # Number of insts commited each cycle
system.switch_cpus.commit.fp_insts                  0                       # Number of committed floating point instructions.
system.switch_cpus.commit.function_calls            0                       # Number of function calls committed.
system.switch_cpus.commit.int_insts          16204186                       # Number of committed integer instructions.
system.switch_cpus.commit.loads               3567032                       # Number of loads committed
system.switch_cpus.commit.membars                   0                       # Number of memory barriers committed
system.switch_cpus.commit.op_class_0::No_OpClass            0      0.00%      0.00% # Class of committed instruction
system.switch_cpus.commit.op_class_0::IntAlu     11575705     71.43%     71.43% # Class of committed instruction
system.switch_cpus.commit.op_class_0::IntMult            0      0.00%     71.43% # Class of committed instruction
system.switch_cpus.commit.op_class_0::IntDiv            0      0.00%     71.43% # Class of committed instruction
system.switch_cpus.commit.op_class_0::FloatAdd            0      0.00%     71.43% # Class of committed instruction
system.switch_cpus.commit.op_class_0::FloatCmp            0      0.00%     71.43% # Class of committed instruction
system.switch_cpus.commit.op_class_0::FloatCvt            0      0.00%     71.43% # Class of committed instruction
system.switch_cpus.commit.op_class_0::FloatMult            0      0.00%     71.43% # Class of committed instruction
system.switch_cpus.commit.op_class_0::FloatMultAcc            0      0.00%     71.43% # Class of committed instruction
system.switch_cpus.commit.op_class_0::FloatDiv            0      0.00%     71.43% # Class of committed instruction
system.switch_cpus.commit.op_class_0::FloatMisc            0      0.00%     71.43% # Class of committed instruction
system.switch_cpus.commit.op_class_0::FloatSqrt            0      0.00%     71.43% # Class of committed instruction
system.switch_cpus.commit.op_class_0::SimdAdd            0      0.00%     71.43% # Class of committed instruction
system.switch_cpus.commit.op_class_0::SimdAddAcc            0      0.00%     71.43% # Class of committed instruction
system.switch_cpus.commit.op_class_0::SimdAlu            0      0.00%     71.43% # Class of committed instruction
system.switch_cpus.commit.op_class_0::SimdCmp            0      0.00%     71.43% # Class of committed instruction
system.switch_cpus.commit.op_class_0::SimdCvt            0      0.00%     71.43% # Class of committed instruction
system.switch_cpus.commit.op_class_0::SimdMisc            0      0.00%     71.43% # Class of committed instruction
system.switch_cpus.commit.op_class_0::SimdMult            0      0.00%     71.43% # Class of committed instruction
system.switch_cpus.commit.op_class_0::SimdMultAcc            0      0.00%     71.43% # Class of committed instruction
system.switch_cpus.commit.op_class_0::SimdShift            0      0.00%     71.43% # Class of committed instruction
system.switch_cpus.commit.op_class_0::SimdShiftAcc            0      0.00%     71.43% # Class of committed instruction
system.switch_cpus.commit.op_class_0::SimdDiv            0      0.00%     71.43% # Class of committed instruction
system.switch_cpus.commit.op_class_0::SimdSqrt            0      0.00%     71.43% # Class of committed instruction
system.switch_cpus.commit.op_class_0::SimdFloatAdd            0      0.00%     71.43% # Class of committed instruction
system.switch_cpus.commit.op_class_0::SimdFloatAlu            0      0.00%     71.43% # Class of committed instruction
system.switch_cpus.commit.op_class_0::SimdFloatCmp            0      0.00%     71.43% # Class of committed instruction
system.switch_cpus.commit.op_class_0::SimdFloatCvt            0      0.00%     71.43% # Class of committed instruction
system.switch_cpus.commit.op_class_0::SimdFloatDiv            0      0.00%     71.43% # Class of committed instruction
system.switch_cpus.commit.op_class_0::SimdFloatMisc            0      0.00%     71.43% # Class of committed instruction
system.switch_cpus.commit.op_class_0::SimdFloatMult            0      0.00%     71.43% # Class of committed instruction
system.switch_cpus.commit.op_class_0::SimdFloatMultAcc            0      0.00%     71.43% # Class of committed instruction
system.switch_cpus.commit.op_class_0::SimdFloatSqrt            0      0.00%     71.43% # Class of committed instruction
system.switch_cpus.commit.op_class_0::SimdReduceAdd            0      0.00%     71.43% # Class of committed instruction
system.switch_cpus.commit.op_class_0::SimdReduceAlu            0      0.00%     71.43% # Class of committed instruction
system.switch_cpus.commit.op_class_0::SimdReduceCmp            0      0.00%     71.43% # Class of committed instruction
system.switch_cpus.commit.op_class_0::SimdFloatReduceAdd            0      0.00%     71.43% # Class of committed instruction
system.switch_cpus.commit.op_class_0::SimdFloatReduceCmp            0      0.00%     71.43% # Class of committed instruction
system.switch_cpus.commit.op_class_0::SimdAes            0      0.00%     71.43% # Class of committed instruction
system.switch_cpus.commit.op_class_0::SimdAesMix            0      0.00%     71.43% # Class of committed instruction
system.switch_cpus.commit.op_class_0::SimdSha1Hash            0      0.00%     71.43% # Class of committed instruction
system.switch_cpus.commit.op_class_0::SimdSha1Hash2            0      0.00%     71.43% # Class of committed instruction
system.switch_cpus.commit.op_class_0::SimdSha256Hash            0      0.00%     71.43% # Class of committed instruction
system.switch_cpus.commit.op_class_0::SimdSha256Hash2            0      0.00%     71.43% # Class of committed instruction
system.switch_cpus.commit.op_class_0::SimdShaSigma2            0      0.00%     71.43% # Class of committed instruction
system.switch_cpus.commit.op_class_0::SimdShaSigma3            0      0.00%     71.43% # Class of committed instruction
system.switch_cpus.commit.op_class_0::SimdPredAlu            0      0.00%     71.43% # Class of committed instruction
system.switch_cpus.commit.op_class_0::MemRead      3567032     22.01%     93.45% # Class of committed instruction
system.switch_cpus.commit.op_class_0::MemWrite      1061813      6.55%    100.00% # Class of committed instruction
system.switch_cpus.commit.op_class_0::FloatMemRead            0      0.00%    100.00% # Class of committed instruction
system.switch_cpus.commit.op_class_0::FloatMemWrite            0      0.00%    100.00% # Class of committed instruction
system.switch_cpus.commit.op_class_0::IprAccess            0      0.00%    100.00% # Class of committed instruction
system.switch_cpus.commit.op_class_0::InstPrefetch            0      0.00%    100.00% # Class of committed instruction
system.switch_cpus.commit.op_class_0::total     16204550                       # Class of committed instruction
system.switch_cpus.commit.refs                4628845                       # Number of memory references committed
system.switch_cpus.commit.swp_count                 0                       # Number of s/w prefetches committed
system.switch_cpus.commit.vec_insts                 0                       # Number of committed Vector instructions.
system.switch_cpus.committedInsts            10000000                       # Number of Instructions Simulated
system.switch_cpus.committedOps              16204550                       # Number of Ops (including micro ops) Simulated
system.switch_cpus.cpi                       3.878896                       # CPI: Cycles Per Instruction
system.switch_cpus.cpi_total                 3.878896                       # CPI: Total CPI of All Threads
system.switch_cpus.decode.BlockedCycles      32662008                       # Number of cycles decode is blocked
system.switch_cpus.decode.DecodedInsts       31901060                       # Number of instructions handled by decode
system.switch_cpus.decode.IdleCycles          1653975                       # Number of cycles decode is idle
system.switch_cpus.decode.RunCycles           2827462                       # Number of cycles decode is running
system.switch_cpus.decode.SquashCycles         178118                       # Number of cycles decode is squashing
system.switch_cpus.decode.UnblockCycles       1466470                       # Number of cycles decode is unblocking
system.switch_cpus.dtb.rdAccesses             4832788                       # TLB accesses on read requests
system.switch_cpus.dtb.rdMisses                 44518                       # TLB misses on read requests
system.switch_cpus.dtb.wrAccesses             1561033                       # TLB accesses on write requests
system.switch_cpus.dtb.wrMisses                  1603                       # TLB misses on write requests
system.switch_cpus.fetch.Branches             4246864                       # Number of branches that fetch encountered
system.switch_cpus.fetch.CacheLines           2882875                       # Number of cache lines fetched
system.switch_cpus.fetch.Cycles              35612706                       # Number of cycles fetch has run and was not squashing or blocked
system.switch_cpus.fetch.IcacheSquashes         22868                       # Number of outstanding Icache misses that were squashed
system.switch_cpus.fetch.Insts               23097094                       # Number of instructions fetch has processed
system.switch_cpus.fetch.MiscStallCycles            2                       # Number of cycles fetch has spent waiting on interrupts, or bad addresses, or out of MSHRs
system.switch_cpus.fetch.PendingTrapStallCycles          954                       # Number of stall cycles due to pending traps
system.switch_cpus.fetch.SquashCycles          356236                       # Number of cycles fetch has spent squashing
system.switch_cpus.fetch.branchRate          0.109486                       # Number of branch fetches per cycle
system.switch_cpus.fetch.icacheStallCycles      2996262                       # Number of cycles fetch is stalled on an Icache miss
system.switch_cpus.fetch.predictedBranches      1575172                       # Number of branches that fetch has predicted taken
system.switch_cpus.fetch.rate                0.595455                       # Number of inst fetches per cycle
system.switch_cpus.fetch.rateDist::samples     38788042                       # Number of instructions fetched each cycle (Total)
system.switch_cpus.fetch.rateDist::mean      0.956973                       # Number of instructions fetched each cycle (Total)
system.switch_cpus.fetch.rateDist::stdev     2.395693                       # Number of instructions fetched each cycle (Total)
system.switch_cpus.fetch.rateDist::underflows            0      0.00%      0.00% # Number of instructions fetched each cycle (Total)
system.switch_cpus.fetch.rateDist::0         32796540     84.55%     84.55% # Number of instructions fetched each cycle (Total)
system.switch_cpus.fetch.rateDist::1           110966      0.29%     84.84% # Number of instructions fetched each cycle (Total)
system.switch_cpus.fetch.rateDist::2           553552      1.43%     86.27% # Number of instructions fetched each cycle (Total)
system.switch_cpus.fetch.rateDist::3           303552      0.78%     87.05% # Number of instructions fetched each cycle (Total)
system.switch_cpus.fetch.rateDist::4           420707      1.08%     88.13% # Number of instructions fetched each cycle (Total)
system.switch_cpus.fetch.rateDist::5           368659      0.95%     89.08% # Number of instructions fetched each cycle (Total)
system.switch_cpus.fetch.rateDist::6          1139332      2.94%     92.02% # Number of instructions fetched each cycle (Total)
system.switch_cpus.fetch.rateDist::7           129591      0.33%     92.36% # Number of instructions fetched each cycle (Total)
system.switch_cpus.fetch.rateDist::8          2965143      7.64%    100.00% # Number of instructions fetched each cycle (Total)
system.switch_cpus.fetch.rateDist::overflows            0      0.00%    100.00% # Number of instructions fetched each cycle (Total)
system.switch_cpus.fetch.rateDist::min_value            0                       # Number of instructions fetched each cycle (Total)
system.switch_cpus.fetch.rateDist::max_value            8                       # Number of instructions fetched each cycle (Total)
system.switch_cpus.fetch.rateDist::total     38788042                       # Number of instructions fetched each cycle (Total)
system.switch_cpus.fp_regfile_writes               56                       # number of floating regfile writes
system.switch_cpus.idleCycles                     921                       # Total number of cycles that the CPU has spent unscheduled due to idling
system.switch_cpus.iew.branchMispredicts       189480                       # Number of branch mispredicts detected at execute
system.switch_cpus.iew.exec_branches          2408648                       # Number of branches executed
system.switch_cpus.iew.exec_nop                     0                       # number of nop insts executed
system.switch_cpus.iew.exec_rate             0.630878                       # Inst execution rate
system.switch_cpus.iew.exec_refs              6822508                       # number of memory reference insts executed
system.switch_cpus.iew.exec_stores            1561033                       # Number of stores executed
system.switch_cpus.iew.exec_swp                     0                       # number of swp insts executed
system.switch_cpus.iew.iewBlockCycles        15604077                       # Number of cycles IEW is blocking
system.switch_cpus.iew.iewDispLoadInsts       6598308                       # Number of dispatched load instructions
system.switch_cpus.iew.iewDispNonSpecInsts            0                       # Number of dispatched non-speculative instructions
system.switch_cpus.iew.iewDispSquashedInsts         4959                       # Number of squashed instructions skipped by dispatch
system.switch_cpus.iew.iewDispStoreInsts      2122917                       # Number of dispatched store instructions
system.switch_cpus.iew.iewDispatchedInsts     30251446                       # Number of instructions dispatched to IQ
system.switch_cpus.iew.iewExecLoadInsts       5261475                       # Number of load instructions executed
system.switch_cpus.iew.iewExecSquashedInsts       272488                       # Number of squashed instructions skipped in execute
system.switch_cpus.iew.iewExecutedInsts      24471094                       # Number of executed instructions
system.switch_cpus.iew.iewIQFullEvents         319158                       # Number of times the IQ has become full, causing a stall
system.switch_cpus.iew.iewIdleCycles                0                       # Number of cycles IEW is idle
system.switch_cpus.iew.iewLSQFullEvents       1489637                       # Number of times the LSQ has become full, causing a stall
system.switch_cpus.iew.iewSquashCycles         178118                       # Number of cycles IEW is squashing
system.switch_cpus.iew.iewUnblockCycles       2312356                       # Number of cycles IEW is unblocking
system.switch_cpus.iew.lsq.thread0.blockedLoads            0                       # Number of blocked loads due to partial load-store forwarding
system.switch_cpus.iew.lsq.thread0.cacheBlocked       235412                       # Number of times an access to memory failed due to the cache being blocked
system.switch_cpus.iew.lsq.thread0.forwLoads        57211                       # Number of loads that had data forwarded from stores
system.switch_cpus.iew.lsq.thread0.ignoredResponses           65                       # Number of memory responses ignored because the instruction is squashed
system.switch_cpus.iew.lsq.thread0.invAddrLoads            0                       # Number of loads ignored due to an invalid address
system.switch_cpus.iew.lsq.thread0.invAddrSwpfs            0                       # Number of software prefetches ignored due to an invalid address
system.switch_cpus.iew.lsq.thread0.memOrderViolation          195                       # Number of memory ordering violations
system.switch_cpus.iew.lsq.thread0.rescheduledLoads            0                       # Number of loads that were rescheduled
system.switch_cpus.iew.lsq.thread0.squashedLoads      3031251                       # Number of loads squashed
system.switch_cpus.iew.lsq.thread0.squashedStores      1061104                       # Number of stores squashed
system.switch_cpus.iew.memOrderViolationEvents          195                       # Number of memory order violations
system.switch_cpus.iew.predictedNotTakenIncorrect        94678                       # Number of branches that were predicted not taken incorrectly
system.switch_cpus.iew.predictedTakenIncorrect        94802                       # Number of branches that were predicted taken incorrectly
system.switch_cpus.iew.wb_consumers          28428439                       # num instructions consuming a value
system.switch_cpus.iew.wb_count              23764655                       # cumulative count of insts written-back
system.switch_cpus.iew.wb_fanout             0.634440                       # average fanout of values written-back
system.switch_cpus.iew.wb_producers          18036152                       # num instructions producing a value
system.switch_cpus.iew.wb_rate               0.612665                       # insts written-back per cycle
system.switch_cpus.iew.wb_sent               23779034                       # cumulative count of insts sent to commit
system.switch_cpus.int_regfile_reads         33636893                       # number of integer regfile reads
system.switch_cpus.int_regfile_writes        19795076                       # number of integer regfile writes
system.switch_cpus.ipc                       0.257805                       # IPC: Instructions Per Cycle
system.switch_cpus.ipc_total                 0.257805                       # IPC: Total IPC of All Threads
system.switch_cpus.iq.FU_type_0::No_OpClass        14210      0.06%      0.06% # Type of FU issued
system.switch_cpus.iq.FU_type_0::IntAlu      17738159     71.69%     71.75% # Type of FU issued
system.switch_cpus.iq.FU_type_0::IntMult         2264      0.01%     71.75% # Type of FU issued
system.switch_cpus.iq.FU_type_0::IntDiv             0      0.00%     71.75% # Type of FU issued
system.switch_cpus.iq.FU_type_0::FloatAdd            0      0.00%     71.75% # Type of FU issued
system.switch_cpus.iq.FU_type_0::FloatCmp            0      0.00%     71.75% # Type of FU issued
system.switch_cpus.iq.FU_type_0::FloatCvt            0      0.00%     71.75% # Type of FU issued
system.switch_cpus.iq.FU_type_0::FloatMult            0      0.00%     71.75% # Type of FU issued
system.switch_cpus.iq.FU_type_0::FloatMultAcc            0      0.00%     71.75% # Type of FU issued
system.switch_cpus.iq.FU_type_0::FloatDiv            0      0.00%     71.75% # Type of FU issued
system.switch_cpus.iq.FU_type_0::FloatMisc            0      0.00%     71.75% # Type of FU issued
system.switch_cpus.iq.FU_type_0::FloatSqrt            0      0.00%     71.75% # Type of FU issued
system.switch_cpus.iq.FU_type_0::SimdAdd            0      0.00%     71.75% # Type of FU issued
system.switch_cpus.iq.FU_type_0::SimdAddAcc            0      0.00%     71.75% # Type of FU issued
system.switch_cpus.iq.FU_type_0::SimdAlu            0      0.00%     71.75% # Type of FU issued
system.switch_cpus.iq.FU_type_0::SimdCmp            0      0.00%     71.75% # Type of FU issued
system.switch_cpus.iq.FU_type_0::SimdCvt            0      0.00%     71.75% # Type of FU issued
system.switch_cpus.iq.FU_type_0::SimdMisc            0      0.00%     71.75% # Type of FU issued
system.switch_cpus.iq.FU_type_0::SimdMult            0      0.00%     71.75% # Type of FU issued
system.switch_cpus.iq.FU_type_0::SimdMultAcc            0      0.00%     71.75% # Type of FU issued
system.switch_cpus.iq.FU_type_0::SimdShift            0      0.00%     71.75% # Type of FU issued
system.switch_cpus.iq.FU_type_0::SimdShiftAcc            0      0.00%     71.75% # Type of FU issued
system.switch_cpus.iq.FU_type_0::SimdDiv            0      0.00%     71.75% # Type of FU issued
system.switch_cpus.iq.FU_type_0::SimdSqrt            0      0.00%     71.75% # Type of FU issued
system.switch_cpus.iq.FU_type_0::SimdFloatAdd            0      0.00%     71.75% # Type of FU issued
system.switch_cpus.iq.FU_type_0::SimdFloatAlu            0      0.00%     71.75% # Type of FU issued
system.switch_cpus.iq.FU_type_0::SimdFloatCmp            0      0.00%     71.75% # Type of FU issued
system.switch_cpus.iq.FU_type_0::SimdFloatCvt            0      0.00%     71.75% # Type of FU issued
system.switch_cpus.iq.FU_type_0::SimdFloatDiv            0      0.00%     71.75% # Type of FU issued
system.switch_cpus.iq.FU_type_0::SimdFloatMisc            0      0.00%     71.75% # Type of FU issued
system.switch_cpus.iq.FU_type_0::SimdFloatMult            0      0.00%     71.75% # Type of FU issued
system.switch_cpus.iq.FU_type_0::SimdFloatMultAcc            0      0.00%     71.75% # Type of FU issued
system.switch_cpus.iq.FU_type_0::SimdFloatSqrt            0      0.00%     71.75% # Type of FU issued
system.switch_cpus.iq.FU_type_0::SimdReduceAdd            0      0.00%     71.75% # Type of FU issued
system.switch_cpus.iq.FU_type_0::SimdReduceAlu            0      0.00%     71.75% # Type of FU issued
system.switch_cpus.iq.FU_type_0::SimdReduceCmp            0      0.00%     71.75% # Type of FU issued
system.switch_cpus.iq.FU_type_0::SimdFloatReduceAdd            0      0.00%     71.75% # Type of FU issued
system.switch_cpus.iq.FU_type_0::SimdFloatReduceCmp            0      0.00%     71.75% # Type of FU issued
system.switch_cpus.iq.FU_type_0::SimdAes            0      0.00%     71.75% # Type of FU issued
system.switch_cpus.iq.FU_type_0::SimdAesMix            0      0.00%     71.75% # Type of FU issued
system.switch_cpus.iq.FU_type_0::SimdSha1Hash            0      0.00%     71.75% # Type of FU issued
system.switch_cpus.iq.FU_type_0::SimdSha1Hash2            0      0.00%     71.75% # Type of FU issued
system.switch_cpus.iq.FU_type_0::SimdSha256Hash            0      0.00%     71.75% # Type of FU issued
system.switch_cpus.iq.FU_type_0::SimdSha256Hash2            0      0.00%     71.75% # Type of FU issued
system.switch_cpus.iq.FU_type_0::SimdShaSigma2            0      0.00%     71.75% # Type of FU issued
system.switch_cpus.iq.FU_type_0::SimdShaSigma3            0      0.00%     71.75% # Type of FU issued
system.switch_cpus.iq.FU_type_0::SimdPredAlu            0      0.00%     71.75% # Type of FU issued
system.switch_cpus.iq.FU_type_0::MemRead      5354010     21.64%     93.39% # Type of FU issued
system.switch_cpus.iq.FU_type_0::MemWrite      1634943      6.61%    100.00% # Type of FU issued
system.switch_cpus.iq.FU_type_0::FloatMemRead            0      0.00%    100.00% # Type of FU issued
system.switch_cpus.iq.FU_type_0::FloatMemWrite            0      0.00%    100.00% # Type of FU issued
system.switch_cpus.iq.FU_type_0::IprAccess            0      0.00%    100.00% # Type of FU issued
system.switch_cpus.iq.FU_type_0::InstPrefetch            0      0.00%    100.00% # Type of FU issued
system.switch_cpus.iq.FU_type_0::total       24743586                       # Type of FU issued
system.switch_cpus.iq.fp_alu_accesses               0                       # Number of floating point alu accesses
system.switch_cpus.iq.fp_inst_queue_reads            0                       # Number of floating instruction queue reads
system.switch_cpus.iq.fp_inst_queue_wakeup_accesses            0                       # Number of floating instruction queue wakeup accesses
system.switch_cpus.iq.fp_inst_queue_writes            0                       # Number of floating instruction queue writes
system.switch_cpus.iq.fu_busy_cnt              291777                       # FU busy when requested
system.switch_cpus.iq.fu_busy_rate           0.011792                       # FU busy rate (busy events/executed inst)
system.switch_cpus.iq.fu_full::No_OpClass            0      0.00%      0.00% # attempts to use FU when none available
system.switch_cpus.iq.fu_full::IntAlu           80249     27.50%     27.50% # attempts to use FU when none available
system.switch_cpus.iq.fu_full::IntMult              0      0.00%     27.50% # attempts to use FU when none available
system.switch_cpus.iq.fu_full::IntDiv               0      0.00%     27.50% # attempts to use FU when none available
system.switch_cpus.iq.fu_full::FloatAdd             0      0.00%     27.50% # attempts to use FU when none available
system.switch_cpus.iq.fu_full::FloatCmp             0      0.00%     27.50% # attempts to use FU when none available
system.switch_cpus.iq.fu_full::FloatCvt             0      0.00%     27.50% # attempts to use FU when none available
system.switch_cpus.iq.fu_full::FloatMult            0      0.00%     27.50% # attempts to use FU when none available
system.switch_cpus.iq.fu_full::FloatMultAcc            0      0.00%     27.50% # attempts to use FU when none available
system.switch_cpus.iq.fu_full::FloatDiv             0      0.00%     27.50% # attempts to use FU when none available
system.switch_cpus.iq.fu_full::FloatMisc            0      0.00%     27.50% # attempts to use FU when none available
system.switch_cpus.iq.fu_full::FloatSqrt            0      0.00%     27.50% # attempts to use FU when none available
system.switch_cpus.iq.fu_full::SimdAdd              0      0.00%     27.50% # attempts to use FU when none available
system.switch_cpus.iq.fu_full::SimdAddAcc            0      0.00%     27.50% # attempts to use FU when none available
system.switch_cpus.iq.fu_full::SimdAlu              0      0.00%     27.50% # attempts to use FU when none available
system.switch_cpus.iq.fu_full::SimdCmp              0      0.00%     27.50% # attempts to use FU when none available
system.switch_cpus.iq.fu_full::SimdCvt              0      0.00%     27.50% # attempts to use FU when none available
system.switch_cpus.iq.fu_full::SimdMisc             0      0.00%     27.50% # attempts to use FU when none available
system.switch_cpus.iq.fu_full::SimdMult             0      0.00%     27.50% # attempts to use FU when none available
system.switch_cpus.iq.fu_full::SimdMultAcc            0      0.00%     27.50% # attempts to use FU when none available
system.switch_cpus.iq.fu_full::SimdShift            0      0.00%     27.50% # attempts to use FU when none available
system.switch_cpus.iq.fu_full::SimdShiftAcc            0      0.00%     27.50% # attempts to use FU when none available
system.switch_cpus.iq.fu_full::SimdDiv              0      0.00%     27.50% # attempts to use FU when none available
system.switch_cpus.iq.fu_full::SimdSqrt             0      0.00%     27.50% # attempts to use FU when none available
system.switch_cpus.iq.fu_full::SimdFloatAdd            0      0.00%     27.50% # attempts to use FU when none available
system.switch_cpus.iq.fu_full::SimdFloatAlu            0      0.00%     27.50% # attempts to use FU when none available
system.switch_cpus.iq.fu_full::SimdFloatCmp            0      0.00%     27.50% # attempts to use FU when none available
system.switch_cpus.iq.fu_full::SimdFloatCvt            0      0.00%     27.50% # attempts to use FU when none available
system.switch_cpus.iq.fu_full::SimdFloatDiv            0      0.00%     27.50% # attempts to use FU when none available
system.switch_cpus.iq.fu_full::SimdFloatMisc            0      0.00%     27.50% # attempts to use FU when none available
system.switch_cpus.iq.fu_full::SimdFloatMult            0      0.00%     27.50% # attempts to use FU when none available
system.switch_cpus.iq.fu_full::SimdFloatMultAcc            0      0.00%     27.50% # attempts to use FU when none available
system.switch_cpus.iq.fu_full::SimdFloatSqrt            0      0.00%     27.50% # attempts to use FU when none available
system.switch_cpus.iq.fu_full::SimdReduceAdd            0      0.00%     27.50% # attempts to use FU when none available
system.switch_cpus.iq.fu_full::SimdReduceAlu            0      0.00%     27.50% # attempts to use FU when none available
system.switch_cpus.iq.fu_full::SimdReduceCmp            0      0.00%     27.50% # attempts to use FU when none available
system.switch_cpus.iq.fu_full::SimdFloatReduceAdd            0      0.00%     27.50% # attempts to use FU when none available
system.switch_cpus.iq.fu_full::SimdFloatReduceCmp            0      0.00%     27.50% # attempts to use FU when none available
system.switch_cpus.iq.fu_full::SimdAes              0      0.00%     27.50% # attempts to use FU when none available
system.switch_cpus.iq.fu_full::SimdAesMix            0      0.00%     27.50% # attempts to use FU when none available
system.switch_cpus.iq.fu_full::SimdSha1Hash            0      0.00%     27.50% # attempts to use FU when none available
system.switch_cpus.iq.fu_full::SimdSha1Hash2            0      0.00%     27.50% # attempts to use FU when none available
system.switch_cpus.iq.fu_full::SimdSha256Hash            0      0.00%     27.50% # attempts to use FU when none available
system.switch_cpus.iq.fu_full::SimdSha256Hash2            0      0.00%     27.50% # attempts to use FU when none available
system.switch_cpus.iq.fu_full::SimdShaSigma2            0      0.00%     27.50% # attempts to use FU when none available
system.switch_cpus.iq.fu_full::SimdShaSigma3            0      0.00%     27.50% # attempts to use FU when none available
system.switch_cpus.iq.fu_full::SimdPredAlu            0      0.00%     27.50% # attempts to use FU when none available
system.switch_cpus.iq.fu_full::MemRead          74179     25.42%     52.93% # attempts to use FU when none available
system.switch_cpus.iq.fu_full::MemWrite        137349     47.07%    100.00% # attempts to use FU when none available
system.switch_cpus.iq.fu_full::FloatMemRead            0      0.00%    100.00% # attempts to use FU when none available
system.switch_cpus.iq.fu_full::FloatMemWrite            0      0.00%    100.00% # attempts to use FU when none available
system.switch_cpus.iq.fu_full::IprAccess            0      0.00%    100.00% # attempts to use FU when none available
system.switch_cpus.iq.fu_full::InstPrefetch            0      0.00%    100.00% # attempts to use FU when none available
system.switch_cpus.iq.int_alu_accesses       25021153                       # Number of integer alu accesses
system.switch_cpus.iq.int_inst_queue_reads     88590433                       # Number of integer instruction queue reads
system.switch_cpus.iq.int_inst_queue_wakeup_accesses     23764655                       # Number of integer instruction queue wakeup accesses
system.switch_cpus.iq.int_inst_queue_writes     44298444                       # Number of integer instruction queue writes
system.switch_cpus.iq.iqInstsAdded           30251446                       # Number of instructions added to the IQ (excludes non-spec)
system.switch_cpus.iq.iqInstsIssued          24743586                       # Number of instructions issued
system.switch_cpus.iq.iqSquashedInstsExamined     14046809                       # Number of squashed instructions iterated over during squash; mainly for profiling
system.switch_cpus.iq.iqSquashedInstsIssued        23446                       # Number of squashed instructions issued
system.switch_cpus.iq.iqSquashedOperandsExamined     22767621                       # Number of squashed operands that are examined and possibly removed from graph
system.switch_cpus.iq.issued_per_cycle::samples     38788042                       # Number of insts issued each cycle
system.switch_cpus.iq.issued_per_cycle::mean     0.637918                       # Number of insts issued each cycle
system.switch_cpus.iq.issued_per_cycle::stdev     1.349762                       # Number of insts issued each cycle
system.switch_cpus.iq.issued_per_cycle::underflows            0      0.00%      0.00% # Number of insts issued each cycle
system.switch_cpus.iq.issued_per_cycle::0     28351141     73.09%     73.09% # Number of insts issued each cycle
system.switch_cpus.iq.issued_per_cycle::1      4281416     11.04%     84.13% # Number of insts issued each cycle
system.switch_cpus.iq.issued_per_cycle::2      2401000      6.19%     90.32% # Number of insts issued each cycle
system.switch_cpus.iq.issued_per_cycle::3      1680681      4.33%     94.65% # Number of insts issued each cycle
system.switch_cpus.iq.issued_per_cycle::4       878828      2.27%     96.92% # Number of insts issued each cycle
system.switch_cpus.iq.issued_per_cycle::5       502946      1.30%     98.22% # Number of insts issued each cycle
system.switch_cpus.iq.issued_per_cycle::6       368324      0.95%     99.17% # Number of insts issued each cycle
system.switch_cpus.iq.issued_per_cycle::7       211507      0.55%     99.71% # Number of insts issued each cycle
system.switch_cpus.iq.issued_per_cycle::8       112199      0.29%    100.00% # Number of insts issued each cycle
system.switch_cpus.iq.issued_per_cycle::overflows            0      0.00%    100.00% # Number of insts issued each cycle
system.switch_cpus.iq.issued_per_cycle::min_value            0                       # Number of insts issued each cycle
system.switch_cpus.iq.issued_per_cycle::max_value            8                       # Number of insts issued each cycle
system.switch_cpus.iq.issued_per_cycle::total     38788042                       # Number of insts issued each cycle
system.switch_cpus.iq.rate                   0.637903                       # Inst issue rate
system.switch_cpus.iq.vec_alu_accesses              0                       # Number of vector alu accesses
system.switch_cpus.iq.vec_inst_queue_reads            0                       # Number of vector instruction queue reads
system.switch_cpus.iq.vec_inst_queue_wakeup_accesses            0                       # Number of vector instruction queue wakeup accesses
system.switch_cpus.iq.vec_inst_queue_writes            0                       # Number of vector instruction queue writes
system.switch_cpus.itb.rdAccesses                   0                       # TLB accesses on read requests
system.switch_cpus.itb.rdMisses                     0                       # TLB misses on read requests
system.switch_cpus.itb.wrAccesses             2883059                       # TLB accesses on write requests
system.switch_cpus.itb.wrMisses                   187                       # TLB misses on write requests
system.switch_cpus.memDep0.conflictingLoads       361621                       # Number of conflicting loads.
system.switch_cpus.memDep0.conflictingStores       473832                       # Number of conflicting stores.
system.switch_cpus.memDep0.insertedLoads      6598308                       # Number of loads inserted to the mem dependence unit.
system.switch_cpus.memDep0.insertedStores      2122917                       # Number of stores inserted to the mem dependence unit.
system.switch_cpus.misc_regfile_reads        12688304                       # number of misc regfile reads
system.switch_cpus.misc_regfile_writes              1                       # number of misc regfile writes
system.switch_cpus.numCycles                 38788963                       # number of cpu cycles simulated
system.switch_cpus.numWorkItemsCompleted            0                       # number of work items this cpu completed
system.switch_cpus.numWorkItemsStarted              0                       # number of work items this cpu started
system.switch_cpus.rename.BlockCycles        23317562                       # Number of cycles rename is blocking
system.switch_cpus.rename.CommittedMaps      20622243                       # Number of HB maps that are committed
system.switch_cpus.rename.IQFullEvents        4480052                       # Number of times rename has blocked due to IQ full
system.switch_cpus.rename.IdleCycles          2087818                       # Number of cycles rename is idle
system.switch_cpus.rename.LQFullEvents        1696476                       # Number of times rename has blocked due to LQ full
system.switch_cpus.rename.ROBFullEvents        160323                       # Number of times rename has blocked due to ROB full
system.switch_cpus.rename.RenameLookups      82335438                       # Number of register rename lookups that rename has made
system.switch_cpus.rename.RenamedInsts       31007622                       # Number of instructions processed by rename
system.switch_cpus.rename.RenamedOperands     39247706                       # Number of destination operands rename has renamed
system.switch_cpus.rename.RunCycles           3557791                       # Number of cycles rename is running
system.switch_cpus.rename.SQFullEvents        3377313                       # Number of times rename has blocked due to SQ full
system.switch_cpus.rename.SquashCycles         178118                       # Number of cycles rename is squashing
system.switch_cpus.rename.UnblockCycles       9646744                       # Number of cycles rename is unblocking
system.switch_cpus.rename.UndoneMaps         18625345                       # Number of HB maps that are undone due to squashing
system.switch_cpus.rename.int_rename_lookups     46684739                       # Number of integer rename lookups
system.switch_cpus.rename.serializeStallCycles            0                       # count of cycles rename stalled for serializing inst
system.switch_cpus.rename.serializingInsts            0                       # count of serializing insts renamed
system.switch_cpus.rename.skidInsts           8965277                       # count of insts added to the skid buffer
system.switch_cpus.rename.tempSerializingInsts            0                       # count of temporary serializing insts renamed
system.switch_cpus.rob.rob_reads             66464354                       # The number of ROB reads
system.switch_cpus.rob.rob_writes            62513252                       # The number of ROB writes
system.switch_cpus.timesIdled                      14                       # Number of times that the entire CPU went into an idle state and unscheduled itself
system.tol2bus.snoop_filter.hit_multi_requests            0                       # Number of requests hitting in the snoop filter with multiple (>1) holders of the requested data.
system.tol2bus.snoop_filter.hit_multi_snoops            0                       # Number of snoops hitting in the snoop filter with multiple (>1) holders of the requested data.
system.tol2bus.snoop_filter.hit_single_requests      2090870                       # Number of requests hitting in the snoop filter with a single holder of the requested data.
system.tol2bus.snoop_filter.hit_single_snoops        18852                       # Number of snoops hitting in the snoop filter with a single holder of the requested data.
system.tol2bus.snoop_filter.tot_requests      4182783                       # Total number of requests made to the snoop filter.
system.tol2bus.snoop_filter.tot_snoops          18852                       # Total number of snoops made to the snoop filter.
system.membus.pwrStateResidencyTicks::UNDEFINED 92800489918500                       # Cumulative time (in ticks) in various power states
system.membus.trans_dist::ReadResp              97085                       # Transaction distribution
system.membus.trans_dist::WritebackDirty       135027                       # Transaction distribution
system.membus.trans_dist::CleanEvict            32984                       # Transaction distribution
system.membus.trans_dist::ReadExReq             79138                       # Transaction distribution
system.membus.trans_dist::ReadExResp            79138                       # Transaction distribution
system.membus.trans_dist::ReadSharedReq         97085                       # Transaction distribution
system.membus.pkt_count_system.l2.mem_side::system.mem_ctrls.port       520457                       # Packet count per connected master and slave (bytes)
system.membus.pkt_count_system.l2.mem_side::total       520457                       # Packet count per connected master and slave (bytes)
system.membus.pkt_count::total                 520457                       # Packet count per connected master and slave (bytes)
system.membus.pkt_size_system.l2.mem_side::system.mem_ctrls.port     19920000                       # Cumulative packet size per connected master and slave (bytes)
system.membus.pkt_size_system.l2.mem_side::total     19920000                       # Cumulative packet size per connected master and slave (bytes)
system.membus.pkt_size::total                19920000                       # Cumulative packet size per connected master and slave (bytes)
system.membus.snoops                                0                       # Total snoops (count)
system.membus.snoopTraffic                          0                       # Total snoop traffic (bytes)
system.membus.snoop_fanout::samples            176223                       # Request fanout histogram
system.membus.snoop_fanout::mean                    0                       # Request fanout histogram
system.membus.snoop_fanout::stdev                   0                       # Request fanout histogram
system.membus.snoop_fanout::underflows              0      0.00%      0.00% # Request fanout histogram
system.membus.snoop_fanout::0                  176223    100.00%    100.00% # Request fanout histogram
system.membus.snoop_fanout::1                       0      0.00%    100.00% # Request fanout histogram
system.membus.snoop_fanout::overflows               0      0.00%    100.00% # Request fanout histogram
system.membus.snoop_fanout::min_value               0                       # Request fanout histogram
system.membus.snoop_fanout::max_value               0                       # Request fanout histogram
system.membus.snoop_fanout::total              176223                       # Request fanout histogram
system.membus.reqLayer2.occupancy           927831500                       # Layer occupancy (ticks)
system.membus.reqLayer2.utilization               4.8                       # Layer utilization (%)
system.membus.respLayer1.occupancy          939882250                       # Layer occupancy (ticks)
system.membus.respLayer1.utilization              4.8                       # Layer utilization (%)
system.switch_cpus.pwrStateResidencyTicks::OFF  19394492250                       # Cumulative time (in ticks) in various power states
system.switch_cpus.dtb.walker.pwrStateResidencyTicks::UNDEFINED 92800489918500                       # Cumulative time (in ticks) in various power states
system.switch_cpus.itb.walker.pwrStateResidencyTicks::UNDEFINED 92800489918500                       # Cumulative time (in ticks) in various power states
system.tol2bus.pwrStateResidencyTicks::UNDEFINED 92800489918500                       # Cumulative time (in ticks) in various power states
system.tol2bus.trans_dist::ReadResp           2012152                       # Transaction distribution
system.tol2bus.trans_dist::WritebackDirty       328883                       # Transaction distribution
system.tol2bus.trans_dist::CleanEvict         1941964                       # Transaction distribution
system.tol2bus.trans_dist::ReadExReq            79761                       # Transaction distribution
system.tol2bus.trans_dist::ReadExResp           79761                       # Transaction distribution
system.tol2bus.trans_dist::ReadCleanReq            19                       # Transaction distribution
system.tol2bus.trans_dist::ReadSharedReq      2012133                       # Transaction distribution
system.tol2bus.pkt_count_system.cpu.icache.mem_side::system.l2.cpu_side           38                       # Packet count per connected master and slave (bytes)
system.tol2bus.pkt_count_system.cpu.dcache.mem_side::system.l2.cpu_side      6274658                       # Packet count per connected master and slave (bytes)
system.tol2bus.pkt_count::total               6274696                       # Packet count per connected master and slave (bytes)
system.tol2bus.pkt_size_system.cpu.icache.mem_side::system.l2.cpu_side         1216                       # Cumulative packet size per connected master and slave (bytes)
system.tol2bus.pkt_size_system.cpu.dcache.mem_side::system.l2.cpu_side    146288000                       # Cumulative packet size per connected master and slave (bytes)
system.tol2bus.pkt_size::total              146289216                       # Cumulative packet size per connected master and slave (bytes)
system.tol2bus.snoops                          179977                       # Total snoops (count)
system.tol2bus.snoopTraffic                   8641728                       # Total snoop traffic (bytes)
system.tol2bus.snoop_fanout::samples          2271890                       # Request fanout histogram
system.tol2bus.snoop_fanout::mean            0.008298                       # Request fanout histogram
system.tol2bus.snoop_fanout::stdev           0.090714                       # Request fanout histogram
system.tol2bus.snoop_fanout::underflows             0      0.00%      0.00% # Request fanout histogram
system.tol2bus.snoop_fanout::0                2253038     99.17%     99.17% # Request fanout histogram
system.tol2bus.snoop_fanout::1                  18852      0.83%    100.00% # Request fanout histogram
system.tol2bus.snoop_fanout::2                      0      0.00%    100.00% # Request fanout histogram
system.tol2bus.snoop_fanout::3                      0      0.00%    100.00% # Request fanout histogram
system.tol2bus.snoop_fanout::4                      0      0.00%    100.00% # Request fanout histogram
system.tol2bus.snoop_fanout::overflows              0      0.00%    100.00% # Request fanout histogram
system.tol2bus.snoop_fanout::min_value              0                       # Request fanout histogram
system.tol2bus.snoop_fanout::max_value              1                       # Request fanout histogram
system.tol2bus.snoop_fanout::total            2271890                       # Request fanout histogram
system.tol2bus.reqLayer0.occupancy         2285245500                       # Layer occupancy (ticks)
system.tol2bus.reqLayer0.utilization             11.8                       # Layer utilization (%)
system.tol2bus.respLayer1.occupancy        3137836500                       # Layer occupancy (ticks)
system.tol2bus.respLayer1.utilization            16.2                       # Layer utilization (%)
system.tol2bus.respLayer0.occupancy             27000                       # Layer occupancy (ticks)
system.tol2bus.respLayer0.utilization             0.0                       # Layer utilization (%)
system.voltage_domain.voltage                       1                       # Voltage in Volts
system.clk_domain.clock                          1000                       # Clock period in ticks
system.l2.pwrStateResidencyTicks::UNDEFINED 92800489918500                       # Cumulative time (in ticks) in various power states
system.l2.demand_hits::.switch_cpus.data      1915690                       # number of demand (read+write) hits
system.l2.demand_hits::total                  1915690                       # number of demand (read+write) hits
system.l2.overall_hits::.switch_cpus.data      1915690                       # number of overall hits
system.l2.overall_hits::total                 1915690                       # number of overall hits
system.l2.demand_misses::.cpu.inst                  1                       # number of demand (read+write) misses
system.l2.demand_misses::.cpu.data                  3                       # number of demand (read+write) misses
system.l2.demand_misses::.switch_cpus.inst           18                       # number of demand (read+write) misses
system.l2.demand_misses::.switch_cpus.data       176201                       # number of demand (read+write) misses
system.l2.demand_misses::total                 176223                       # number of demand (read+write) misses
system.l2.overall_misses::.cpu.inst                 1                       # number of overall misses
system.l2.overall_misses::.cpu.data                 3                       # number of overall misses
system.l2.overall_misses::.switch_cpus.inst           18                       # number of overall misses
system.l2.overall_misses::.switch_cpus.data       176201                       # number of overall misses
system.l2.overall_misses::total                176223                       # number of overall misses
system.l2.demand_miss_latency::.switch_cpus.inst      1599000                       # number of demand (read+write) miss cycles
system.l2.demand_miss_latency::.switch_cpus.data  15441425000                       # number of demand (read+write) miss cycles
system.l2.demand_miss_latency::total      15443024000                       # number of demand (read+write) miss cycles
system.l2.overall_miss_latency::.switch_cpus.inst      1599000                       # number of overall miss cycles
system.l2.overall_miss_latency::.switch_cpus.data  15441425000                       # number of overall miss cycles
system.l2.overall_miss_latency::total     15443024000                       # number of overall miss cycles
system.l2.demand_accesses::.cpu.inst                1                       # number of demand (read+write) accesses
system.l2.demand_accesses::.cpu.data                3                       # number of demand (read+write) accesses
system.l2.demand_accesses::.switch_cpus.inst           18                       # number of demand (read+write) accesses
system.l2.demand_accesses::.switch_cpus.data      2091891                       # number of demand (read+write) accesses
system.l2.demand_accesses::total              2091913                       # number of demand (read+write) accesses
system.l2.overall_accesses::.cpu.inst               1                       # number of overall (read+write) accesses
system.l2.overall_accesses::.cpu.data               3                       # number of overall (read+write) accesses
system.l2.overall_accesses::.switch_cpus.inst           18                       # number of overall (read+write) accesses
system.l2.overall_accesses::.switch_cpus.data      2091891                       # number of overall (read+write) accesses
system.l2.overall_accesses::total             2091913                       # number of overall (read+write) accesses
system.l2.demand_miss_rate::.cpu.inst               1                       # miss rate for demand accesses
system.l2.demand_miss_rate::.cpu.data               1                       # miss rate for demand accesses
system.l2.demand_miss_rate::.switch_cpus.inst            1                       # miss rate for demand accesses
system.l2.demand_miss_rate::.switch_cpus.data     0.084230                       # miss rate for demand accesses
system.l2.demand_miss_rate::total            0.084240                       # miss rate for demand accesses
system.l2.overall_miss_rate::.cpu.inst              1                       # miss rate for overall accesses
system.l2.overall_miss_rate::.cpu.data              1                       # miss rate for overall accesses
system.l2.overall_miss_rate::.switch_cpus.inst            1                       # miss rate for overall accesses
system.l2.overall_miss_rate::.switch_cpus.data     0.084230                       # miss rate for overall accesses
system.l2.overall_miss_rate::total           0.084240                       # miss rate for overall accesses
system.l2.demand_avg_miss_latency::.switch_cpus.inst 88833.333333                       # average overall miss latency
system.l2.demand_avg_miss_latency::.switch_cpus.data 87635.285838                       # average overall miss latency
system.l2.demand_avg_miss_latency::total 87633.419020                       # average overall miss latency
system.l2.overall_avg_miss_latency::.switch_cpus.inst 88833.333333                       # average overall miss latency
system.l2.overall_avg_miss_latency::.switch_cpus.data 87635.285838                       # average overall miss latency
system.l2.overall_avg_miss_latency::total 87633.419020                       # average overall miss latency
system.l2.blocked_cycles::no_mshrs                  0                       # number of cycles access was blocked
system.l2.blocked_cycles::no_targets                0                       # number of cycles access was blocked
system.l2.blocked::no_mshrs                         0                       # number of cycles access was blocked
system.l2.blocked::no_targets                       0                       # number of cycles access was blocked
system.l2.avg_blocked_cycles::no_mshrs            nan                       # average number of cycles each access was blocked
system.l2.avg_blocked_cycles::no_targets          nan                       # average number of cycles each access was blocked
system.l2.writebacks::.writebacks              135027                       # number of writebacks
system.l2.writebacks::total                    135027                       # number of writebacks
system.l2.demand_mshr_misses::.switch_cpus.inst           18                       # number of demand (read+write) MSHR misses
system.l2.demand_mshr_misses::.switch_cpus.data       176201                       # number of demand (read+write) MSHR misses
system.l2.demand_mshr_misses::total            176219                       # number of demand (read+write) MSHR misses
system.l2.overall_mshr_misses::.switch_cpus.inst           18                       # number of overall MSHR misses
system.l2.overall_mshr_misses::.switch_cpus.data       176201                       # number of overall MSHR misses
system.l2.overall_mshr_misses::total           176219                       # number of overall MSHR misses
system.l2.demand_mshr_miss_latency::.switch_cpus.inst      1419000                       # number of demand (read+write) MSHR miss cycles
system.l2.demand_mshr_miss_latency::.switch_cpus.data  13679415000                       # number of demand (read+write) MSHR miss cycles
system.l2.demand_mshr_miss_latency::total  13680834000                       # number of demand (read+write) MSHR miss cycles
system.l2.overall_mshr_miss_latency::.switch_cpus.inst      1419000                       # number of overall MSHR miss cycles
system.l2.overall_mshr_miss_latency::.switch_cpus.data  13679415000                       # number of overall MSHR miss cycles
system.l2.overall_mshr_miss_latency::total  13680834000                       # number of overall MSHR miss cycles
system.l2.demand_mshr_miss_rate::.switch_cpus.inst            1                       # mshr miss rate for demand accesses
system.l2.demand_mshr_miss_rate::.switch_cpus.data     0.084230                       # mshr miss rate for demand accesses
system.l2.demand_mshr_miss_rate::total       0.084238                       # mshr miss rate for demand accesses
system.l2.overall_mshr_miss_rate::.switch_cpus.inst            1                       # mshr miss rate for overall accesses
system.l2.overall_mshr_miss_rate::.switch_cpus.data     0.084230                       # mshr miss rate for overall accesses
system.l2.overall_mshr_miss_rate::total      0.084238                       # mshr miss rate for overall accesses
system.l2.demand_avg_mshr_miss_latency::.switch_cpus.inst 78833.333333                       # average overall mshr miss latency
system.l2.demand_avg_mshr_miss_latency::.switch_cpus.data 77635.285838                       # average overall mshr miss latency
system.l2.demand_avg_mshr_miss_latency::total 77635.408214                       # average overall mshr miss latency
system.l2.overall_avg_mshr_miss_latency::.switch_cpus.inst 78833.333333                       # average overall mshr miss latency
system.l2.overall_avg_mshr_miss_latency::.switch_cpus.data 77635.285838                       # average overall mshr miss latency
system.l2.overall_avg_mshr_miss_latency::total 77635.408214                       # average overall mshr miss latency
system.l2.replacements                         179977                       # number of replacements
system.l2.WritebackDirty_hits::.writebacks       193856                       # number of WritebackDirty hits
system.l2.WritebackDirty_hits::total           193856                       # number of WritebackDirty hits
system.l2.WritebackDirty_accesses::.writebacks       193856                       # number of WritebackDirty accesses(hits+misses)
system.l2.WritebackDirty_accesses::total       193856                       # number of WritebackDirty accesses(hits+misses)
system.l2.CleanEvict_mshr_misses::.writebacks         6886                       # number of CleanEvict MSHR misses
system.l2.CleanEvict_mshr_misses::total          6886                       # number of CleanEvict MSHR misses
system.l2.CleanEvict_mshr_miss_rate::.writebacks          inf                       # mshr miss rate for CleanEvict accesses
system.l2.CleanEvict_mshr_miss_rate::total          inf                       # mshr miss rate for CleanEvict accesses
system.l2.ReadExReq_hits::.switch_cpus.data          623                       # number of ReadExReq hits
system.l2.ReadExReq_hits::total                   623                       # number of ReadExReq hits
system.l2.ReadExReq_misses::.switch_cpus.data        79138                       # number of ReadExReq misses
system.l2.ReadExReq_misses::total               79138                       # number of ReadExReq misses
system.l2.ReadExReq_miss_latency::.switch_cpus.data   6783337000                       # number of ReadExReq miss cycles
system.l2.ReadExReq_miss_latency::total    6783337000                       # number of ReadExReq miss cycles
system.l2.ReadExReq_accesses::.switch_cpus.data        79761                       # number of ReadExReq accesses(hits+misses)
system.l2.ReadExReq_accesses::total             79761                       # number of ReadExReq accesses(hits+misses)
system.l2.ReadExReq_miss_rate::.switch_cpus.data     0.992189                       # miss rate for ReadExReq accesses
system.l2.ReadExReq_miss_rate::total         0.992189                       # miss rate for ReadExReq accesses
system.l2.ReadExReq_avg_miss_latency::.switch_cpus.data 85715.294801                       # average ReadExReq miss latency
system.l2.ReadExReq_avg_miss_latency::total 85715.294801                       # average ReadExReq miss latency
system.l2.ReadExReq_mshr_misses::.switch_cpus.data        79138                       # number of ReadExReq MSHR misses
system.l2.ReadExReq_mshr_misses::total          79138                       # number of ReadExReq MSHR misses
system.l2.ReadExReq_mshr_miss_latency::.switch_cpus.data   5991957000                       # number of ReadExReq MSHR miss cycles
system.l2.ReadExReq_mshr_miss_latency::total   5991957000                       # number of ReadExReq MSHR miss cycles
system.l2.ReadExReq_mshr_miss_rate::.switch_cpus.data     0.992189                       # mshr miss rate for ReadExReq accesses
system.l2.ReadExReq_mshr_miss_rate::total     0.992189                       # mshr miss rate for ReadExReq accesses
system.l2.ReadExReq_avg_mshr_miss_latency::.switch_cpus.data 75715.294801                       # average ReadExReq mshr miss latency
system.l2.ReadExReq_avg_mshr_miss_latency::total 75715.294801                       # average ReadExReq mshr miss latency
system.l2.ReadCleanReq_misses::.cpu.inst            1                       # number of ReadCleanReq misses
system.l2.ReadCleanReq_misses::.switch_cpus.inst           18                       # number of ReadCleanReq misses
system.l2.ReadCleanReq_misses::total               19                       # number of ReadCleanReq misses
system.l2.ReadCleanReq_miss_latency::.switch_cpus.inst      1599000                       # number of ReadCleanReq miss cycles
system.l2.ReadCleanReq_miss_latency::total      1599000                       # number of ReadCleanReq miss cycles
system.l2.ReadCleanReq_accesses::.cpu.inst            1                       # number of ReadCleanReq accesses(hits+misses)
system.l2.ReadCleanReq_accesses::.switch_cpus.inst           18                       # number of ReadCleanReq accesses(hits+misses)
system.l2.ReadCleanReq_accesses::total             19                       # number of ReadCleanReq accesses(hits+misses)
system.l2.ReadCleanReq_miss_rate::.cpu.inst            1                       # miss rate for ReadCleanReq accesses
system.l2.ReadCleanReq_miss_rate::.switch_cpus.inst            1                       # miss rate for ReadCleanReq accesses
system.l2.ReadCleanReq_miss_rate::total             1                       # miss rate for ReadCleanReq accesses
system.l2.ReadCleanReq_avg_miss_latency::.switch_cpus.inst 88833.333333                       # average ReadCleanReq miss latency
system.l2.ReadCleanReq_avg_miss_latency::total 84157.894737                       # average ReadCleanReq miss latency
system.l2.ReadCleanReq_mshr_misses::.switch_cpus.inst           18                       # number of ReadCleanReq MSHR misses
system.l2.ReadCleanReq_mshr_misses::total           18                       # number of ReadCleanReq MSHR misses
system.l2.ReadCleanReq_mshr_miss_latency::.switch_cpus.inst      1419000                       # number of ReadCleanReq MSHR miss cycles
system.l2.ReadCleanReq_mshr_miss_latency::total      1419000                       # number of ReadCleanReq MSHR miss cycles
system.l2.ReadCleanReq_mshr_miss_rate::.switch_cpus.inst            1                       # mshr miss rate for ReadCleanReq accesses
system.l2.ReadCleanReq_mshr_miss_rate::total     0.947368                       # mshr miss rate for ReadCleanReq accesses
system.l2.ReadCleanReq_avg_mshr_miss_latency::.switch_cpus.inst 78833.333333                       # average ReadCleanReq mshr miss latency
system.l2.ReadCleanReq_avg_mshr_miss_latency::total 78833.333333                       # average ReadCleanReq mshr miss latency
system.l2.ReadSharedReq_hits::.switch_cpus.data      1915067                       # number of ReadSharedReq hits
system.l2.ReadSharedReq_hits::total           1915067                       # number of ReadSharedReq hits
system.l2.ReadSharedReq_misses::.cpu.data            3                       # number of ReadSharedReq misses
[...]
system.cpu.icache.tags.data_accesses         21726185                       # Number of data accesses
system.cpu.dtb.walker.pwrStateResidencyTicks::UNDEFINED 92869189607000                       # Cumulative time (in ticks) in various power states
system.cpu.interrupts.clk_domain.clock           8000                       # Clock period in ticks
system.cpu.itb_walker_cache.pwrStateResidencyTicks::UNDEFINED 92869189607000                       # Cumulative time (in ticks) in various power states
system.cpu.itb_walker_cache.blocked_cycles::no_mshrs            0                       # number of cycles access was blocked
system.cpu.itb_walker_cache.blocked_cycles::no_targets            0                       # number of cycles access was blocked
system.cpu.itb_walker_cache.blocked::no_mshrs            0                       # number of cycles access was blocked
system.cpu.itb_walker_cache.blocked::no_targets            0                       # number of cycles access was blocked
system.cpu.itb_walker_cache.avg_blocked_cycles::no_mshrs          nan                       # average number of cycles each access was blocked
system.cpu.itb_walker_cache.avg_blocked_cycles::no_targets          nan                       # average number of cycles each access was blocked
system.cpu.itb_walker_cache.replacements            0                       # number of replacements
system.cpu.itb_walker_cache.tags.pwrStateResidencyTicks::UNDEFINED 92869189607000                       # Cumulative time (in ticks) in various power states
system.cpu.itb_walker_cache.tags.tagsinuse            0                       # Cycle average of tags in use
system.cpu.itb_walker_cache.tags.total_refs            0                       # Total number of references to valid blocks.
system.cpu.itb_walker_cache.tags.sampled_refs            0                       # Sample count of references to valid blocks.
system.cpu.itb_walker_cache.tags.avg_refs          nan                       # Average number of references to valid blocks.
system.cpu.itb_walker_cache.tags.warmup_cycle            0                       # Cycle when the warmup percentage was hit.
system.cpu.itb_walker_cache.tags.tag_accesses            0                       # Number of tag accesses
system.cpu.itb_walker_cache.tags.data_accesses            0                       # Number of data accesses
system.cpu.itb.walker.pwrStateResidencyTicks::UNDEFINED 92869189607000                       # Cumulative time (in ticks) in various power states
system.cpu.dtb_walker_cache.pwrStateResidencyTicks::UNDEFINED 92869189607000                       # Cumulative time (in ticks) in various power states
system.cpu.dtb_walker_cache.blocked_cycles::no_mshrs            0                       # number of cycles access was blocked
system.cpu.dtb_walker_cache.blocked_cycles::no_targets            0                       # number of cycles access was blocked
system.cpu.dtb_walker_cache.blocked::no_mshrs            0                       # number of cycles access was blocked
system.cpu.dtb_walker_cache.blocked::no_targets            0                       # number of cycles access was blocked
system.cpu.dtb_walker_cache.avg_blocked_cycles::no_mshrs          nan                       # average number of cycles each access was blocked
system.cpu.dtb_walker_cache.avg_blocked_cycles::no_targets          nan                       # average number of cycles each access was blocked
system.cpu.dtb_walker_cache.replacements            0                       # number of replacements
system.cpu.dtb_walker_cache.tags.pwrStateResidencyTicks::UNDEFINED 92869189607000                       # Cumulative time (in ticks) in various power states
system.cpu.dtb_walker_cache.tags.tagsinuse            0                       # Cycle average of tags in use
system.cpu.dtb_walker_cache.tags.total_refs            0                       # Total number of references to valid blocks.
system.cpu.dtb_walker_cache.tags.sampled_refs            0                       # Sample count of references to valid blocks.
system.cpu.dtb_walker_cache.tags.avg_refs          nan                       # Average number of references to valid blocks.
system.cpu.dtb_walker_cache.tags.warmup_cycle            0                       # Cycle when the warmup percentage was hit.
system.cpu.dtb_walker_cache.tags.tag_accesses            0                       # Number of tag accesses
system.cpu.dtb_walker_cache.tags.data_accesses            0                       # Number of data accesses
system.cpu.dcache.pwrStateResidencyTicks::UNDEFINED 92869189607000                       # Cumulative time (in ticks) in various power states
system.cpu.dcache.demand_hits::.cpu.data            1                       # number of demand (read+write) hits
system.cpu.dcache.demand_hits::.switch_cpus.data     13956244                       # number of demand (read+write) hits
system.cpu.dcache.demand_hits::total         13956245                       # number of demand (read+write) hits
system.cpu.dcache.overall_hits::.cpu.data            1                       # number of overall hits
system.cpu.dcache.overall_hits::.switch_cpus.data     13956244                       # number of overall hits
system.cpu.dcache.overall_hits::total        13956245                       # number of overall hits
system.cpu.dcache.demand_misses::.cpu.data            3                       # number of demand (read+write) misses
system.cpu.dcache.demand_misses::.switch_cpus.data      8583279                       # number of demand (read+write) misses
system.cpu.dcache.demand_misses::total        8583282                       # number of demand (read+write) misses
system.cpu.dcache.overall_misses::.cpu.data            3                       # number of overall misses
system.cpu.dcache.overall_misses::.switch_cpus.data      8583279                       # number of overall misses
system.cpu.dcache.overall_misses::total       8583282                       # number of overall misses
system.cpu.dcache.demand_miss_latency::.switch_cpus.data 211421224369                       # number of demand (read+write) miss cycles
system.cpu.dcache.demand_miss_latency::total 211421224369                       # number of demand (read+write) miss cycles
system.cpu.dcache.overall_miss_latency::.switch_cpus.data 211421224369                       # number of overall miss cycles
system.cpu.dcache.overall_miss_latency::total 211421224369                       # number of overall miss cycles
system.cpu.dcache.demand_accesses::.cpu.data            4                       # number of demand (read+write) accesses
system.cpu.dcache.demand_accesses::.switch_cpus.data     22539523                       # number of demand (read+write) accesses
system.cpu.dcache.demand_accesses::total     22539527                       # number of demand (read+write) accesses
system.cpu.dcache.overall_accesses::.cpu.data            4                       # number of overall (read+write) accesses
system.cpu.dcache.overall_accesses::.switch_cpus.data     22539523                       # number of overall (read+write) accesses
system.cpu.dcache.overall_accesses::total     22539527                       # number of overall (read+write) accesses
system.cpu.dcache.demand_miss_rate::.cpu.data     0.750000                       # miss rate for demand accesses
system.cpu.dcache.demand_miss_rate::.switch_cpus.data     0.380810                       # miss rate for demand accesses
system.cpu.dcache.demand_miss_rate::total     0.380810                       # miss rate for demand accesses
system.cpu.dcache.overall_miss_rate::.cpu.data     0.750000                       # miss rate for overall accesses
system.cpu.dcache.overall_miss_rate::.switch_cpus.data     0.380810                       # miss rate for overall accesses
system.cpu.dcache.overall_miss_rate::total     0.380810                       # miss rate for overall accesses
system.cpu.dcache.demand_avg_miss_latency::.switch_cpus.data 24631.754877                       # average overall miss latency
system.cpu.dcache.demand_avg_miss_latency::total 24631.746268                       # average overall miss latency
system.cpu.dcache.overall_avg_miss_latency::.switch_cpus.data 24631.754877                       # average overall miss latency
system.cpu.dcache.overall_avg_miss_latency::total 24631.746268                       # average overall miss latency
system.cpu.dcache.blocked_cycles::no_mshrs     19736426                       # number of cycles access was blocked
system.cpu.dcache.blocked_cycles::no_targets            0                       # number of cycles access was blocked
system.cpu.dcache.blocked::no_mshrs           1151889                       # number of cycles access was blocked
system.cpu.dcache.blocked::no_targets               0                       # number of cycles access was blocked
system.cpu.dcache.avg_blocked_cycles::no_mshrs    17.133965                       # average number of cycles each access was blocked
system.cpu.dcache.avg_blocked_cycles::no_targets          nan                       # average number of cycles each access was blocked
system.cpu.dcache.writebacks::.writebacks       693820                       # number of writebacks
system.cpu.dcache.writebacks::total            693820                       # number of writebacks
system.cpu.dcache.demand_mshr_hits::.switch_cpus.data       785076                       # number of demand (read+write) MSHR hits
system.cpu.dcache.demand_mshr_hits::total       785076                       # number of demand (read+write) MSHR hits
system.cpu.dcache.overall_mshr_hits::.switch_cpus.data       785076                       # number of overall MSHR hits
system.cpu.dcache.overall_mshr_hits::total       785076                       # number of overall MSHR hits
system.cpu.dcache.demand_mshr_misses::.switch_cpus.data      7798203                       # number of demand (read+write) MSHR misses
system.cpu.dcache.demand_mshr_misses::total      7798203                       # number of demand (read+write) MSHR misses
system.cpu.dcache.overall_mshr_misses::.switch_cpus.data      7798203                       # number of overall MSHR misses
system.cpu.dcache.overall_mshr_misses::total      7798203                       # number of overall MSHR misses
system.cpu.dcache.demand_mshr_miss_latency::.switch_cpus.data 181922534871                       # number of demand (read+write) MSHR miss cycles
system.cpu.dcache.demand_mshr_miss_latency::total 181922534871                       # number of demand (read+write) MSHR miss cycles
system.cpu.dcache.overall_mshr_miss_latency::.switch_cpus.data 181922534871                       # number of overall MSHR miss cycles
system.cpu.dcache.overall_mshr_miss_latency::total 181922534871                       # number of overall MSHR miss cycles
system.cpu.dcache.demand_mshr_miss_rate::.switch_cpus.data     0.345979                       # mshr miss rate for demand accesses
system.cpu.dcache.demand_mshr_miss_rate::total     0.345979                       # mshr miss rate for demand accesses
system.cpu.dcache.overall_mshr_miss_rate::.switch_cpus.data     0.345979                       # mshr miss rate for overall accesses
system.cpu.dcache.overall_mshr_miss_rate::total     0.345979                       # mshr miss rate for overall accesses
system.cpu.dcache.demand_avg_mshr_miss_latency::.switch_cpus.data 23328.776498                       # average overall mshr miss latency
system.cpu.dcache.demand_avg_mshr_miss_latency::total 23328.776498                       # average overall mshr miss latency
system.cpu.dcache.overall_avg_mshr_miss_latency::.switch_cpus.data 23328.776498                       # average overall mshr miss latency
system.cpu.dcache.overall_avg_mshr_miss_latency::total 23328.776498                       # average overall mshr miss latency
system.cpu.dcache.replacements                7797179                       # number of replacements
system.cpu.dcache.ReadReq_hits::.cpu.data            1                       # number of ReadReq hits
system.cpu.dcache.ReadReq_hits::.switch_cpus.data      9643322                       # number of ReadReq hits
system.cpu.dcache.ReadReq_hits::total         9643323                       # number of ReadReq hits
system.cpu.dcache.ReadReq_misses::.cpu.data            3                       # number of ReadReq misses
system.cpu.dcache.ReadReq_misses::.switch_cpus.data      8283433                       # number of ReadReq misses
system.cpu.dcache.ReadReq_misses::total       8283436                       # number of ReadReq misses
system.cpu.dcache.ReadReq_miss_latency::.switch_cpus.data 185300506000                       # number of ReadReq miss cycles
system.cpu.dcache.ReadReq_miss_latency::total 185300506000                       # number of ReadReq miss cycles
system.cpu.dcache.ReadReq_accesses::.cpu.data            4                       # number of ReadReq accesses(hits+misses)
system.cpu.dcache.ReadReq_accesses::.switch_cpus.data     17926755                       # number of ReadReq accesses(hits+misses)
system.cpu.dcache.ReadReq_accesses::total     17926759                       # number of ReadReq accesses(hits+misses)
system.cpu.dcache.ReadReq_miss_rate::.cpu.data     0.750000                       # miss rate for ReadReq accesses
system.cpu.dcache.ReadReq_miss_rate::.switch_cpus.data     0.462071                       # miss rate for ReadReq accesses
system.cpu.dcache.ReadReq_miss_rate::total     0.462071                       # miss rate for ReadReq accesses
system.cpu.dcache.ReadReq_avg_miss_latency::.switch_cpus.data 22370.013254                       # average ReadReq miss latency
system.cpu.dcache.ReadReq_avg_miss_latency::total 22370.005152                       # average ReadReq miss latency
system.cpu.dcache.ReadReq_mshr_hits::.switch_cpus.data       785048                       # number of ReadReq MSHR hits
system.cpu.dcache.ReadReq_mshr_hits::total       785048                       # number of ReadReq MSHR hits
system.cpu.dcache.ReadReq_mshr_misses::.switch_cpus.data      7498385                       # number of ReadReq MSHR misses
system.cpu.dcache.ReadReq_mshr_misses::total      7498385                       # number of ReadReq MSHR misses
system.cpu.dcache.ReadReq_mshr_miss_latency::.switch_cpus.data 156102622500                       # number of ReadReq MSHR miss cycles
system.cpu.dcache.ReadReq_mshr_miss_latency::total 156102622500                       # number of ReadReq MSHR miss cycles
system.cpu.dcache.ReadReq_mshr_miss_rate::.switch_cpus.data     0.418279                       # mshr miss rate for ReadReq accesses
system.cpu.dcache.ReadReq_mshr_miss_rate::total     0.418279                       # mshr miss rate for ReadReq accesses
system.cpu.dcache.ReadReq_avg_mshr_miss_latency::.switch_cpus.data 20818.165845                       # average ReadReq mshr miss latency
system.cpu.dcache.ReadReq_avg_mshr_miss_latency::total 20818.165845                       # average ReadReq mshr miss latency
system.cpu.dcache.WriteReq_hits::.switch_cpus.data      4312922                       # number of WriteReq hits
system.cpu.dcache.WriteReq_hits::total        4312922                       # number of WriteReq hits
system.cpu.dcache.WriteReq_misses::.switch_cpus.data       299846                       # number of WriteReq misses
system.cpu.dcache.WriteReq_misses::total       299846                       # number of WriteReq misses
system.cpu.dcache.WriteReq_miss_latency::.switch_cpus.data  26120718369                       # number of WriteReq miss cycles
system.cpu.dcache.WriteReq_miss_latency::total  26120718369                       # number of WriteReq miss cycles
system.cpu.dcache.WriteReq_accesses::.switch_cpus.data      4612768                       # number of WriteReq accesses(hits+misses)
system.cpu.dcache.WriteReq_accesses::total      4612768                       # number of WriteReq accesses(hits+misses)
system.cpu.dcache.WriteReq_miss_rate::.switch_cpus.data     0.065003                       # miss rate for WriteReq accesses
system.cpu.dcache.WriteReq_miss_rate::total     0.065003                       # miss rate for WriteReq accesses
system.cpu.dcache.WriteReq_avg_miss_latency::.switch_cpus.data 87113.779637                       # average WriteReq miss latency
system.cpu.dcache.WriteReq_avg_miss_latency::total 87113.779637                       # average WriteReq miss latency
system.cpu.dcache.WriteReq_mshr_hits::.switch_cpus.data           28                       # number of WriteReq MSHR hits
system.cpu.dcache.WriteReq_mshr_hits::total           28                       # number of WriteReq MSHR hits
system.cpu.dcache.WriteReq_mshr_misses::.switch_cpus.data       299818                       # number of WriteReq MSHR misses
system.cpu.dcache.WriteReq_mshr_misses::total       299818                       # number of WriteReq MSHR misses
system.cpu.dcache.WriteReq_mshr_miss_latency::.switch_cpus.data  25819912371                       # number of WriteReq MSHR miss cycles
system.cpu.dcache.WriteReq_mshr_miss_latency::total  25819912371                       # number of WriteReq MSHR miss cycles
system.cpu.dcache.WriteReq_mshr_miss_rate::.switch_cpus.data     0.064997                       # mshr miss rate for WriteReq accesses
system.cpu.dcache.WriteReq_mshr_miss_rate::total     0.064997                       # mshr miss rate for WriteReq accesses
system.cpu.dcache.WriteReq_avg_mshr_miss_latency::.switch_cpus.data 86118.619866                       # average WriteReq mshr miss latency
system.cpu.dcache.WriteReq_avg_mshr_miss_latency::total 86118.619866                       # average WriteReq mshr miss latency
system.cpu.dcache.tags.pwrStateResidencyTicks::UNDEFINED 92869189607000                       # Cumulative time (in ticks) in various power states
system.cpu.dcache.tags.tagsinuse             0.971092                       # Cycle average of tags in use
system.cpu.dcache.tags.total_refs            21754448                       # Total number of references to valid blocks.
system.cpu.dcache.tags.sampled_refs           7798203                       # Sample count of references to valid blocks.
system.cpu.dcache.tags.avg_refs              2.789674                       # Average number of references to valid blocks.
system.cpu.dcache.tags.warmup_cycle      92781095431500                       # Cycle when the warmup percentage was hit.
system.cpu.dcache.tags.occ_blocks::.cpu.data     0.000002                       # Average occupied blocks per requestor
system.cpu.dcache.tags.occ_blocks::.switch_cpus.data     0.971091                       # Average occupied blocks per requestor
system.cpu.dcache.tags.occ_percent::.cpu.data     0.000000                       # Average percentage of cache occupancy
system.cpu.dcache.tags.occ_percent::.switch_cpus.data     0.000948                       # Average percentage of cache occupancy
system.cpu.dcache.tags.occ_percent::total     0.000948                       # Average percentage of cache occupancy
system.cpu.dcache.tags.occ_task_id_blocks::1024         1024                       # Occupied blocks per task id
system.cpu.dcache.tags.age_task_id_blocks_1024::0          542                       # Occupied blocks per task id
system.cpu.dcache.tags.age_task_id_blocks_1024::1          480                       # Occupied blocks per task id
system.cpu.dcache.tags.age_task_id_blocks_1024::2            2                       # Occupied blocks per task id
system.cpu.dcache.tags.occ_task_id_percent::1024            1                       # Percentage of cache occupancy per task id
system.cpu.dcache.tags.tag_accesses          52877257                       # Number of tag accesses
system.cpu.dcache.tags.data_accesses         52877257                       # Number of data accesses

---------- End Simulation Statistics   ----------
