
---------- Begin Simulation Statistics ----------
final_tick                               70893018850000                       # Number of ticks from beginning of simulation (restored from checkpoints and never reset)
host_inst_rate                                  54860                       # Simulator instruction rate (inst/s)
host_mem_usage                                 791880                       # Number of bytes of host memory used
host_op_rate                                    87931                       # Simulator op (including micro ops) rate (op/s)
host_seconds                                   182.28                       # Real time elapsed on the host
host_tick_rate                               15413173                       # Simulator tick rate (ticks/s)
sim_freq                                 1000000000000                       # Frequency of simulated ticks
sim_insts                                    10000010                       # Number of instructions simulated
sim_ops                                      16028373                       # Number of ops (including micro ops) simulated
sim_seconds                                  0.002810                       # Number of seconds simulated
sim_ticks                                  2809573750                       # Number of ticks simulated
system.cpu.committedInsts                          10                       # Number of instructions committed
system.cpu.committedOps                            14                       # Number of ops (including micro ops) committed
system.cpu.dtb.rdAccesses                           5                       # TLB accesses on read requests
system.cpu.dtb.rdMisses                             0                       # TLB misses on read requests
system.cpu.dtb.wrAccesses                           2                       # TLB accesses on write requests
system.cpu.dtb.wrMisses                             0                       # TLB misses on write requests
system.cpu.idle_fraction                            0                       # Percentage of idle cycles
system.cpu.itb.rdAccesses                           0                       # TLB accesses on read requests
system.cpu.itb.rdMisses                             0                       # TLB misses on read requests
system.cpu.itb.wrAccesses                          15                       # TLB accesses on write requests
system.cpu.itb.wrMisses                             0                       # TLB misses on write requests
system.cpu.not_idle_fraction                        1                       # Percentage of non-idle cycles
system.cpu.numCycles                               19                       # number of cpu cycles simulated
system.cpu.numWorkItemsCompleted                    0                       # number of work items this cpu completed
system.cpu.numWorkItemsStarted                      0                       # number of work items this cpu started
system.cpu.num_busy_cycles                         19                       # Number of busy cycles
system.cpu.num_cc_register_reads                   20                       # number of times the CC registers were read
system.cpu.num_cc_register_writes                   6                       # number of times the CC registers were written
system.cpu.num_conditional_control_insts            0                       # number of instructions that are conditional controls
system.cpu.num_fp_alu_accesses                      0                       # Number of float alu accesses
system.cpu.num_fp_insts                             0                       # number of float instructions
system.cpu.num_fp_register_reads                    0                       # number of times the floating registers were read
system.cpu.num_fp_register_writes                   0                       # number of times the floating registers were written
system.cpu.num_func_calls                           0                       # number of times a function call or return occured
system.cpu.num_idle_cycles                          0                       # Number of idle cycles
system.cpu.num_int_alu_accesses                    14                       # Number of integer alu accesses
system.cpu.num_int_insts                           14                       # number of integer instructions
system.cpu.num_int_register_reads                  41                       # number of times the integer registers were read
system.cpu.num_int_register_writes                 12                       # number of times the integer registers were written
system.cpu.num_load_insts                           5                       # Number of load instructions
system.cpu.num_mem_refs                             7                       # number of memory refs
system.cpu.num_store_insts                          2                       # Number of store instructions
system.cpu.num_vec_alu_accesses                     0                       # Number of vector alu accesses
system.cpu.num_vec_insts                            0                       # number of vector instructions
system.cpu.num_vec_register_reads                   0                       # number of times the vector registers were read
system.cpu.num_vec_register_writes                  0                       # number of times the vector registers were written
system.cpu.op_class::No_OpClass                     0      0.00%      0.00% # Class of executed instruction
system.cpu.op_class::IntAlu                         7     50.00%     50.00% # Class of executed instruction
system.cpu.op_class::IntMult                        0      0.00%     50.00% # Class of executed instruction
system.cpu.op_class::IntDiv                         0      0.00%     50.00% # Class of executed instruction
system.cpu.op_class::FloatAdd                       0      0.00%     50.00% # Class of executed instruction
system.cpu.op_class::FloatCmp                       0      0.00%     50.00% # Class of executed instruction
system.cpu.op_class::FloatCvt                       0      0.00%     50.00% # Class of executed instruction
system.cpu.op_class::FloatMult                      0      0.00%     50.00% # Class of executed instruction
system.cpu.op_class::FloatMultAcc                   0      0.00%     50.00% # Class of executed instruction
system.cpu.op_class::FloatDiv                       0      0.00%     50.00% # Class of executed instruction
system.cpu.op_class::FloatMisc                      0      0.00%     50.00% # Class of executed instruction
system.cpu.op_class::FloatSqrt                      0      0.00%     50.00% # Class of executed instruction
system.cpu.op_class::SimdAdd                        0      0.00%     50.00% # Class of executed instruction
system.cpu.op_class::SimdAddAcc                     0      0.00%     50.00% # Class of executed instruction
system.cpu.op_class::SimdAlu                        0      0.00%     50.00% # Class of executed instruction
system.cpu.op_class::SimdCmp                        0      0.00%     50.00% # Class of executed instruction
system.cpu.op_class::SimdCvt                        0      0.00%     50.00% # Class of executed instruction
system.cpu.op_class::SimdMisc                       0      0.00%     50.00% # Class of executed instruction
system.cpu.op_class::SimdMult                       0      0.00%     50.00% # Class of executed instruction
system.cpu.op_class::SimdMultAcc                    0      0.00%     50.00% # Class of executed instruction
system.cpu.op_class::SimdShift                      0      0.00%     50.00% # Class of executed instruction
system.cpu.op_class::SimdShiftAcc                   0      0.00%     50.00% # Class of executed instruction
system.cpu.op_class::SimdDiv                        0      0.00%     50.00% # Class of executed instruction
system.cpu.op_class::SimdSqrt                       0      0.00%     50.00% # Class of executed instruction
system.cpu.op_class::SimdFloatAdd                   0      0.00%     50.00% # Class of executed instruction
system.cpu.op_class::SimdFloatAlu                   0      0.00%     50.00% # Class of executed instruction
system.cpu.op_class::SimdFloatCmp                   0      0.00%     50.00% # Class of executed instruction
system.cpu.op_class::SimdFloatCvt                   0      0.00%     50.00% # Class of executed instruction
system.cpu.op_class::SimdFloatDiv                   0      0.00%     50.00% # Class of executed instruction
system.cpu.op_class::SimdFloatMisc                  0      0.00%     50.00% # Class of executed instruction
system.cpu.op_class::SimdFloatMult                  0      0.00%     50.00% # Class of executed instruction
system.cpu.op_class::SimdFloatMultAcc               0      0.00%     50.00% # Class of executed instruction
system.cpu.op_class::SimdFloatSqrt                  0      0.00%     50.00% # Class of executed instruction
system.cpu.op_class::SimdReduceAdd                  0      0.00%     50.00% # Class of executed instruction
system.cpu.op_class::SimdReduceAlu                  0      0.00%     50.00% # Class of executed instruction
system.cpu.op_class::SimdReduceCmp                  0      0.00%     50.00% # Class of executed instruction
system.cpu.op_class::SimdFloatReduceAdd             0      0.00%     50.00% # Class of executed instruction
system.cpu.op_class::SimdFloatReduceCmp             0      0.00%     50.00% # Class of executed instruction
system.cpu.op_class::SimdAes                        0      0.00%     50.00% # Class of executed instruction
system.cpu.op_class::SimdAesMix                     0      0.00%     50.00% # Class of executed instruction
system.cpu.op_class::SimdSha1Hash                   0      0.00%     50.00% # Class of executed instruction
system.cpu.op_class::SimdSha1Hash2                  0      0.00%     50.00% # Class of executed instruction
system.cpu.op_class::SimdSha256Hash                 0      0.00%     50.00% # Class of executed instruction
system.cpu.op_class::SimdSha256Hash2                0      0.00%     50.00% # Class of executed instruction
system.cpu.op_class::SimdShaSigma2                  0      0.00%     50.00% # Class of executed instruction
system.cpu.op_class::SimdShaSigma3                  0      0.00%     50.00% # Class of executed instruction
system.cpu.op_class::SimdPredAlu                    0      0.00%     50.00% # Class of executed instruction
system.cpu.op_class::MemRead                        5     35.71%     85.71% # Class of executed instruction
system.cpu.op_class::MemWrite                       2     14.29%    100.00% # Class of executed instruction
system.cpu.op_class::FloatMemRead                   0      0.00%    100.00% # Class of executed instruction
system.cpu.op_class::FloatMemWrite                  0      0.00%    100.00% # Class of executed instruction
system.cpu.op_class::IprAccess                      0      0.00%    100.00% # Class of executed instruction
system.cpu.op_class::InstPrefetch                   0      0.00%    100.00% # Class of executed instruction
system.cpu.op_class::total                         14                       # Class of executed instruction
system.cpu.workload.numSyscalls                     0                       # Number of system calls
system.membus.snoop_filter.hit_multi_requests            0                       # Number of requests hitting in the snoop filter with multiple (>1) holders of the requested data.
system.membus.snoop_filter.hit_multi_snoops            0                       # Number of snoops hitting in the snoop filter with multiple (>1) holders of the requested data.
system.membus.snoop_filter.hit_single_requests         4246                       # Number of requests hitting in the snoop filter with a single holder of the requested data.
system.membus.snoop_filter.hit_single_snoops            0                       # Number of snoops hitting in the snoop filter with a single holder of the requested data.
system.membus.snoop_filter.tot_requests         10703                       # Total number of requests made to the snoop filter.
system.membus.snoop_filter.tot_snoops               0                       # Total number of snoops made to the snoop filter.
system.switch_cpus.branchPred.BTBCorrect            0                       # Number of correct BTB predictions (this stat may not work properly.
system.switch_cpus.branchPred.BTBHitPct      0.000000                       # BTB Hit Percentage
system.switch_cpus.branchPred.BTBHits               0                       # Number of BTB hits
system.switch_cpus.branchPred.BTBLookups       616059                       # Number of BTB lookups
system.switch_cpus.branchPred.RASInCorrect            1                       # Number of incorrect RAS predictions.
system.switch_cpus.branchPred.condIncorrect        18968                       # Number of conditional branches incorrect
system.switch_cpus.branchPred.condPredicted       859211                       # Number of conditional branches predicted
system.switch_cpus.branchPred.indirectHits       495216                       # Number of indirect target hits.
system.switch_cpus.branchPred.indirectLookups       616059                       # Number of indirect predictor lookups.
system.switch_cpus.branchPred.indirectMisses       120843                       # Number of indirect misses.
system.switch_cpus.branchPred.lookups          938210                       # Number of BP lookups
system.switch_cpus.branchPred.usedRAS           39079                       # Number of times the RAS was used to get a target.
system.switch_cpus.branchPredindirectMispredicted         2243                       # Number of mispredicted indirect branches.
system.switch_cpus.cc_regfile_reads          14092366                       # number of cc regfile reads
system.switch_cpus.cc_regfile_writes          7118889                       # number of cc regfile writes
system.switch_cpus.commit.amos                      0                       # Number of atomic instructions committed
system.switch_cpus.commit.branchMispredicts        18995                       # The number of times a branch was mispredicted
system.switch_cpus.commit.branches             714318                       # Number of branches committed
system.switch_cpus.commit.bw_lim_events       1283279                       # number cycles where commit BW limit reached
system.switch_cpus.commit.commitSquashedInsts      1191238                       # The number of squashed insts skipped by commit
system.switch_cpus.commit.committedInsts     10000000                       # Number of instructions committed
system.switch_cpus.commit.committedOps       16028359                       # Number of ops (including micro ops) committed
system.switch_cpus.commit.committed_per_cycle::samples      5449346                       # Number of insts commited each cycle
system.switch_cpus.commit.committed_per_cycle::mean     2.941336                       # Number of insts commited each cycle
system.switch_cpus.commit.committed_per_cycle::stdev     3.139176                       # Number of insts commited each cycle
system.switch_cpus.commit.committed_per_cycle::underflows            0      0.00%      0.00% # Number of insts commited each cycle
system.switch_cpus.commit.committed_per_cycle::0      1213342     22.27%     22.27% # Number of insts commited each cycle
system.switch_cpus.commit.committed_per_cycle::1      1873559     34.38%     56.65% # Number of insts commited each cycle
system.switch_cpus.commit.committed_per_cycle::2       411218      7.55%     64.19% # Number of insts commited each cycle
system.switch_cpus.commit.committed_per_cycle::3       186892      3.43%     67.62% # Number of insts commited each cycle
system.switch_cpus.commit.committed_per_cycle::4       142606      2.62%     70.24% # Number of insts commited each cycle
system.switch_cpus.commit.committed_per_cycle::5       146225      2.68%     72.92% # Number of insts commited each cycle
system.switch_cpus.commit.committed_per_cycle::6       141668      2.60%     75.52% # Number of insts commited each cycle
system.switch_cpus.commit.committed_per_cycle::7        50557      0.93%     76.45% # Number of insts commited each cycle
system.switch_cpus.commit.committed_per_cycle::8      1283279     23.55%    100.00% # Number of insts commited each cycle
system.switch_cpus.commit.committed_per_cycle::overflows            0      0.00%    100.00% # Number of insts commited each cycle
system.switch_cpus.commit.committed_per_cycle::min_value            0                       # Number of insts commited each cycle
system.switch_cpus.commit.committed_per_cycle::max_value            8                       # Number of insts commited each cycle
system.switch_cpus.commit.committed_per_cycle::total      5449346                       # Number of insts commited each cycle
system.switch_cpus.commit.fp_insts            1417974                       # Number of committed floating point instructions.
system.switch_cpus.commit.function_calls        31902                       # Number of function calls committed.
system.switch_cpus.commit.int_insts          14812880                       # Number of committed integer instructions.
system.switch_cpus.commit.loads               3609577                       # Number of loads committed
system.switch_cpus.commit.membars                   0                       # Number of memory barriers committed
system.switch_cpus.commit.op_class_0::No_OpClass        95071      0.59%      0.59% # Class of committed instruction
system.switch_cpus.commit.op_class_0::IntAlu      9822899     61.28%     61.88% # Class of committed instruction
system.switch_cpus.commit.op_class_0::IntMult        84240      0.53%     62.40% # Class of committed instruction
system.switch_cpus.commit.op_class_0::IntDiv            0      0.00%     62.40% # Class of committed instruction
system.switch_cpus.commit.op_class_0::FloatAdd        32039      0.20%     62.60% # Class of committed instruction
system.switch_cpus.commit.op_class_0::FloatCmp            0      0.00%     62.60% # Class of committed instruction
system.switch_cpus.commit.op_class_0::FloatCvt            0      0.00%     62.60% # Class of committed instruction
system.switch_cpus.commit.op_class_0::FloatMult            0      0.00%     62.60% # Class of committed instruction
system.switch_cpus.commit.op_class_0::FloatMultAcc            0      0.00%     62.60% # Class of committed instruction
system.switch_cpus.commit.op_class_0::FloatDiv            0      0.00%     62.60% # Class of committed instruction
system.switch_cpus.commit.op_class_0::FloatMisc            0      0.00%     62.60% # Class of committed instruction
system.switch_cpus.commit.op_class_0::FloatSqrt            0      0.00%     62.60% # Class of committed instruction
system.switch_cpus.commit.op_class_0::SimdAdd        21142      0.13%     62.73% # Class of committed instruction
system.switch_cpus.commit.op_class_0::SimdAddAcc            0      0.00%     62.73% # Class of committed instruction
system.switch_cpus.commit.op_class_0::SimdAlu       327752      2.04%     64.78% # Class of committed instruction
system.switch_cpus.commit.op_class_0::SimdCmp            0      0.00%     64.78% # Class of committed instruction
system.switch_cpus.commit.op_class_0::SimdCvt       126470      0.79%     65.57% # Class of committed instruction
system.switch_cpus.commit.op_class_0::SimdMisc       158042      0.99%     66.55% # Class of committed instruction
system.switch_cpus.commit.op_class_0::SimdMult            0      0.00%     66.55% # Class of committed instruction
system.switch_cpus.commit.op_class_0::SimdMultAcc            0      0.00%     66.55% # Class of committed instruction
system.switch_cpus.commit.op_class_0::SimdShift        63426      0.40%     66.95% # Class of committed instruction
system.switch_cpus.commit.op_class_0::SimdShiftAcc            0      0.00%     66.95% # Class of committed instruction
system.switch_cpus.commit.op_class_0::SimdDiv            0      0.00%     66.95% # Class of committed instruction
system.switch_cpus.commit.op_class_0::SimdSqrt            0      0.00%     66.95% # Class of committed instruction
system.switch_cpus.commit.op_class_0::SimdFloatAdd       107090      0.67%     67.62% # Class of committed instruction
system.switch_cpus.commit.op_class_0::SimdFloatAlu            0      0.00%     67.62% # Class of committed instruction
system.switch_cpus.commit.op_class_0::SimdFloatCmp           27      0.00%     67.62% # Class of committed instruction
system.switch_cpus.commit.op_class_0::SimdFloatCvt       149566      0.93%     68.55% # Class of committed instruction
system.switch_cpus.commit.op_class_0::SimdFloatDiv        21087      0.13%     68.68% # Class of committed instruction
system.switch_cpus.commit.op_class_0::SimdFloatMisc            0      0.00%     68.68% # Class of committed instruction
system.switch_cpus.commit.op_class_0::SimdFloatMult        10842      0.07%     68.75% # Class of committed instruction
system.switch_cpus.commit.op_class_0::SimdFloatMultAcc            0      0.00%     68.75% # Class of committed instruction
system.switch_cpus.commit.op_class_0::SimdFloatSqrt            0      0.00%     68.75% # Class of committed instruction
system.switch_cpus.commit.op_class_0::SimdReduceAdd            0      0.00%     68.75% # Class of committed instruction
system.switch_cpus.commit.op_class_0::SimdReduceAlu            0      0.00%     68.75% # Class of committed instruction
system.switch_cpus.commit.op_class_0::SimdReduceCmp            0      0.00%     68.75% # Class of committed instruction
system.switch_cpus.commit.op_class_0::SimdFloatReduceAdd            0      0.00%     68.75% # Class of committed instruction
system.switch_cpus.commit.op_class_0::SimdFloatReduceCmp            0      0.00%     68.75% # Class of committed instruction
system.switch_cpus.commit.op_class_0::SimdAes            0      0.00%     68.75% # Class of committed instruction
system.switch_cpus.commit.op_class_0::SimdAesMix            0      0.00%     68.75% # Class of committed instruction
system.switch_cpus.commit.op_class_0::SimdSha1Hash            0      0.00%     68.75% # Class of committed instruction
system.switch_cpus.commit.op_class_0::SimdSha1Hash2            0      0.00%     68.75% # Class of committed instruction
system.switch_cpus.commit.op_class_0::SimdSha256Hash            0      0.00%     68.75% # Class of committed instruction
system.switch_cpus.commit.op_class_0::SimdSha256Hash2            0      0.00%     68.75% # Class of committed instruction
system.switch_cpus.commit.op_class_0::SimdShaSigma2            0      0.00%     68.75% # Class of committed instruction
system.switch_cpus.commit.op_class_0::SimdShaSigma3            0      0.00%     68.75% # Class of committed instruction
system.switch_cpus.commit.op_class_0::SimdPredAlu            0      0.00%     68.75% # Class of committed instruction
system.switch_cpus.commit.op_class_0::MemRead      3386158     21.13%     89.88% # Class of committed instruction
system.switch_cpus.commit.op_class_0::MemWrite      1398812      8.73%     98.60% # Class of committed instruction
system.switch_cpus.commit.op_class_0::FloatMemRead       223419      1.39%    100.00% # Class of committed instruction
system.switch_cpus.commit.op_class_0::FloatMemWrite          277      0.00%    100.00% # Class of committed instruction
system.switch_cpus.commit.op_class_0::IprAccess            0      0.00%    100.00% # Class of committed instruction
system.switch_cpus.commit.op_class_0::InstPrefetch            0      0.00%    100.00% # Class of committed instruction
system.switch_cpus.commit.op_class_0::total     16028359                       # Class of committed instruction
system.switch_cpus.commit.refs                5008666                       # Number of memory references committed
system.switch_cpus.commit.swp_count                 0                       # Number of s/w prefetches committed
system.switch_cpus.commit.vec_insts                 0                       # Number of committed Vector instructions.
system.switch_cpus.committedInsts            10000000                       # Number of Instructions Simulated
system.switch_cpus.committedOps              16028359                       # Number of Ops (including micro ops) Simulated
system.switch_cpus.cpi                       0.561913                       # CPI: Cycles Per Instruction
system.switch_cpus.cpi_total                 0.561913                       # CPI: Total CPI of All Threads
system.switch_cpus.decode.BlockedCycles       2720794                       # Number of cycles decode is blocked
system.switch_cpus.decode.DecodedInsts       17553675                       # Number of instructions handled by decode
system.switch_cpus.decode.IdleCycles           557695                       # Number of cycles decode is idle
system.switch_cpus.decode.RunCycles           1521990                       # Number of cycles decode is running
system.switch_cpus.decode.SquashCycles          19215                       # Number of cycles decode is squashing
system.switch_cpus.decode.UnblockCycles        788882                       # Number of cycles decode is unblocking
system.switch_cpus.dtb.rdAccesses             3687906                       # TLB accesses on read requests
system.switch_cpus.dtb.rdMisses                    77                       # TLB misses on read requests
system.switch_cpus.dtb.wrAccesses             1409196                       # TLB accesses on write requests
system.switch_cpus.dtb.wrMisses                   116                       # TLB misses on write requests
system.switch_cpus.fetch.Branches              938210                       # Number of branches that fetch encountered
system.switch_cpus.fetch.CacheLines            844161                       # Number of cache lines fetched
system.switch_cpus.fetch.Cycles               4731815                       # Number of cycles fetch has run and was not squashing or blocked
system.switch_cpus.fetch.IcacheSquashes          3249                       # Number of outstanding Icache misses that were squashed
system.switch_cpus.fetch.Insts               10913784                       # Number of instructions fetch has processed
system.switch_cpus.fetch.MiscStallCycles           27                       # Number of cycles fetch has spent waiting on interrupts, or bad addresses, or out of MSHRs
system.switch_cpus.fetch.PendingTrapStallCycles          164                       # Number of stall cycles due to pending traps
system.switch_cpus.fetch.SquashCycles           38430                       # Number of cycles fetch has spent squashing
system.switch_cpus.fetch.branchRate          0.166967                       # Number of branch fetches per cycle
system.switch_cpus.fetch.icacheStallCycles       857361                       # Number of cycles fetch is stalled on an Icache miss
system.switch_cpus.fetch.predictedBranches       534295                       # Number of branches that fetch has predicted taken
system.switch_cpus.fetch.rate                1.942256                       # Number of inst fetches per cycle
system.switch_cpus.fetch.rateDist::samples      5608582                       # Number of instructions fetched each cycle (Total)
system.switch_cpus.fetch.rateDist::mean      3.169946                       # Number of instructions fetched each cycle (Total)
system.switch_cpus.fetch.rateDist::stdev     3.536763                       # Number of instructions fetched each cycle (Total)
system.switch_cpus.fetch.rateDist::underflows            0      0.00%      0.00% # Number of instructions fetched each cycle (Total)
system.switch_cpus.fetch.rateDist::0          2814281     50.18%     50.18% # Number of instructions fetched each cycle (Total)
system.switch_cpus.fetch.rateDist::1           138336      2.47%     52.64% # Number of instructions fetched each cycle (Total)
system.switch_cpus.fetch.rateDist::2           103099      1.84%     54.48% # Number of instructions fetched each cycle (Total)
system.switch_cpus.fetch.rateDist::3           145071      2.59%     57.07% # Number of instructions fetched each cycle (Total)
system.switch_cpus.fetch.rateDist::4           179598      3.20%     60.27% # Number of instructions fetched each cycle (Total)
system.switch_cpus.fetch.rateDist::5           334862      5.97%     66.24% # Number of instructions fetched each cycle (Total)
system.switch_cpus.fetch.rateDist::6           171339      3.05%     69.30% # Number of instructions fetched each cycle (Total)
system.switch_cpus.fetch.rateDist::7           197550      3.52%     72.82% # Number of instructions fetched each cycle (Total)
system.switch_cpus.fetch.rateDist::8          1524446     27.18%    100.00% # Number of instructions fetched each cycle (Total)
system.switch_cpus.fetch.rateDist::overflows            0      0.00%    100.00% # Number of instructions fetched each cycle (Total)
system.switch_cpus.fetch.rateDist::min_value            0                       # Number of instructions fetched each cycle (Total)
system.switch_cpus.fetch.rateDist::max_value            8                       # Number of instructions fetched each cycle (Total)
system.switch_cpus.fetch.rateDist::total      5608582                       # Number of instructions fetched each cycle (Total)
system.switch_cpus.fp_regfile_reads           2734886                       # number of floating regfile reads
system.switch_cpus.fp_regfile_writes          1362337                       # number of floating regfile writes
system.switch_cpus.idleCycles                   10545                       # Total number of cycles that the CPU has spent unscheduled due to idling
system.switch_cpus.iew.branchMispredicts        32697                       # Number of branch mispredicts detected at execute
system.switch_cpus.iew.exec_branches           776254                       # Number of branches executed
system.switch_cpus.iew.exec_nop                     0                       # number of nop insts executed
system.switch_cpus.iew.exec_rate             2.976601                       # Inst execution rate
system.switch_cpus.iew.exec_refs              5091822                       # number of memory reference insts executed
system.switch_cpus.iew.exec_stores            1409196                       # Number of stores executed
system.switch_cpus.iew.exec_swp                     0                       # number of swp insts executed
system.switch_cpus.iew.iewBlockCycles          145091                       # Number of cycles IEW is blocking
system.switch_cpus.iew.iewDispLoadInsts       3713864                       # Number of dispatched load instructions
system.switch_cpus.iew.iewDispNonSpecInsts            6                       # Number of dispatched non-speculative instructions
system.switch_cpus.iew.iewDispSquashedInsts          377                       # Number of squashed instructions skipped by dispatch
system.switch_cpus.iew.iewDispStoreInsts      1423376                       # Number of dispatched store instructions
system.switch_cpus.iew.iewDispatchedInsts     17219609                       # Number of instructions dispatched to IQ
system.switch_cpus.iew.iewExecLoadInsts       3682626                       # Number of load instructions executed
system.switch_cpus.iew.iewExecSquashedInsts        30305                       # Number of squashed instructions skipped in execute
system.switch_cpus.iew.iewExecutedInsts      16725898                       # Number of executed instructions
system.switch_cpus.iew.iewIQFullEvents            133                       # Number of times the IQ has become full, causing a stall
system.switch_cpus.iew.iewIdleCycles                0                       # Number of cycles IEW is idle
system.switch_cpus.iew.iewLSQFullEvents         93477                       # Number of times the LSQ has become full, causing a stall
system.switch_cpus.iew.iewSquashCycles          19215                       # Number of cycles IEW is squashing
system.switch_cpus.iew.iewUnblockCycles         94297                       # Number of cycles IEW is unblocking
system.switch_cpus.iew.lsq.thread0.blockedLoads            0                       # Number of blocked loads due to partial load-store forwarding
system.switch_cpus.iew.lsq.thread0.cacheBlocked          207                       # Number of times an access to memory failed due to the cache being blocked
system.switch_cpus.iew.lsq.thread0.forwLoads       388381                       # Number of loads that had data forwarded from stores
system.switch_cpus.iew.lsq.thread0.ignoredResponses           40                       # Number of memory responses ignored because the instruction is squashed
system.switch_cpus.iew.lsq.thread0.invAddrLoads            0                       # Number of loads ignored due to an invalid address
system.switch_cpus.iew.lsq.thread0.invAddrSwpfs            0                       # Number of software prefetches ignored due to an invalid address
system.switch_cpus.iew.lsq.thread0.memOrderViolation          251                       # Number of memory ordering violations
system.switch_cpus.iew.lsq.thread0.rescheduledLoads            0                       # Number of loads that were rescheduled
system.switch_cpus.iew.lsq.thread0.squashedLoads       104275                       # Number of loads squashed
system.switch_cpus.iew.lsq.thread0.squashedStores        24277                       # Number of stores squashed
system.switch_cpus.iew.memOrderViolationEvents          251                       # Number of memory order violations
system.switch_cpus.iew.predictedNotTakenIncorrect        27931                       # Number of branches that were predicted not taken incorrectly
system.switch_cpus.iew.predictedTakenIncorrect         4766                       # Number of branches that were predicted taken incorrectly
system.switch_cpus.iew.wb_consumers          26929731                       # num instructions consuming a value
system.switch_cpus.iew.wb_count              16710120                       # cumulative count of insts written-back
system.switch_cpus.iew.wb_fanout             0.497908                       # average fanout of values written-back
system.switch_cpus.iew.wb_producers          13408523                       # num instructions producing a value
system.switch_cpus.iew.wb_rate               2.973793                       # insts written-back per cycle
system.switch_cpus.iew.wb_sent               16716614                       # cumulative count of insts sent to commit
system.switch_cpus.int_regfile_reads         28983120                       # number of integer regfile reads
system.switch_cpus.int_regfile_writes        13059898                       # number of integer regfile writes
system.switch_cpus.ipc                       1.779636                       # IPC: Instructions Per Cycle
system.switch_cpus.ipc_total                 1.779636                       # IPC: Total IPC of All Threads
system.switch_cpus.iq.FU_type_0::No_OpClass        99757      0.60%      0.60% # Type of FU issued
system.switch_cpus.iq.FU_type_0::IntAlu      10370215     61.89%     62.48% # Type of FU issued
system.switch_cpus.iq.FU_type_0::IntMult        85865      0.51%     63.00% # Type of FU issued
system.switch_cpus.iq.FU_type_0::IntDiv             0      0.00%     63.00% # Type of FU issued
system.switch_cpus.iq.FU_type_0::FloatAdd        34536      0.21%     63.20% # Type of FU issued
system.switch_cpus.iq.FU_type_0::FloatCmp            0      0.00%     63.20% # Type of FU issued
system.switch_cpus.iq.FU_type_0::FloatCvt            0      0.00%     63.20% # Type of FU issued
system.switch_cpus.iq.FU_type_0::FloatMult            0      0.00%     63.20% # Type of FU issued
system.switch_cpus.iq.FU_type_0::FloatMultAcc            0      0.00%     63.20% # Type of FU issued
system.switch_cpus.iq.FU_type_0::FloatDiv            0      0.00%     63.20% # Type of FU issued
system.switch_cpus.iq.FU_type_0::FloatMisc            0      0.00%     63.20% # Type of FU issued
system.switch_cpus.iq.FU_type_0::FloatSqrt            0      0.00%     63.20% # Type of FU issued
system.switch_cpus.iq.FU_type_0::SimdAdd        21142      0.13%     63.33% # Type of FU issued
system.switch_cpus.iq.FU_type_0::SimdAddAcc            0      0.00%     63.33% # Type of FU issued
system.switch_cpus.iq.FU_type_0::SimdAlu       341298      2.04%     65.37% # Type of FU issued
system.switch_cpus.iq.FU_type_0::SimdCmp            0      0.00%     65.37% # Type of FU issued
system.switch_cpus.iq.FU_type_0::SimdCvt       128832      0.77%     66.13% # Type of FU issued
system.switch_cpus.iq.FU_type_0::SimdMisc       159974      0.95%     67.09% # Type of FU issued
system.switch_cpus.iq.FU_type_0::SimdMult            0      0.00%     67.09% # Type of FU issued
system.switch_cpus.iq.FU_type_0::SimdMultAcc            0      0.00%     67.09% # Type of FU issued
system.switch_cpus.iq.FU_type_0::SimdShift        63482      0.38%     67.47% # Type of FU issued
system.switch_cpus.iq.FU_type_0::SimdShiftAcc            0      0.00%     67.47% # Type of FU issued
system.switch_cpus.iq.FU_type_0::SimdDiv            0      0.00%     67.47% # Type of FU issued
system.switch_cpus.iq.FU_type_0::SimdSqrt            0      0.00%     67.47% # Type of FU issued
system.switch_cpus.iq.FU_type_0::SimdFloatAdd       138738      0.83%     68.30% # Type of FU issued
system.switch_cpus.iq.FU_type_0::SimdFloatAlu            0      0.00%     68.30% # Type of FU issued
system.switch_cpus.iq.FU_type_0::SimdFloatCmp           45      0.00%     68.30% # Type of FU issued
system.switch_cpus.iq.FU_type_0::SimdFloatCvt       175497      1.05%     69.34% # Type of FU issued
system.switch_cpus.iq.FU_type_0::SimdFloatDiv        23002      0.14%     69.48% # Type of FU issued
system.switch_cpus.iq.FU_type_0::SimdFloatMisc            0      0.00%     69.48% # Type of FU issued
system.switch_cpus.iq.FU_type_0::SimdFloatMult        12803      0.08%     69.56% # Type of FU issued
system.switch_cpus.iq.FU_type_0::SimdFloatMultAcc            0      0.00%     69.56% # Type of FU issued
system.switch_cpus.iq.FU_type_0::SimdFloatSqrt            0      0.00%     69.56% # Type of FU issued
system.switch_cpus.iq.FU_type_0::SimdReduceAdd            0      0.00%     69.56% # Type of FU issued
system.switch_cpus.iq.FU_type_0::SimdReduceAlu            0      0.00%     69.56% # Type of FU issued
system.switch_cpus.iq.FU_type_0::SimdReduceCmp            0      0.00%     69.56% # Type of FU issued
system.switch_cpus.iq.FU_type_0::SimdFloatReduceAdd            0      0.00%     69.56% # Type of FU issued
system.switch_cpus.iq.FU_type_0::SimdFloatReduceCmp            0      0.00%     69.56% # Type of FU issued
system.switch_cpus.iq.FU_type_0::SimdAes            0      0.00%     69.56% # Type of FU issued
system.switch_cpus.iq.FU_type_0::SimdAesMix            0      0.00%     69.56% # Type of FU issued
system.switch_cpus.iq.FU_type_0::SimdSha1Hash            0      0.00%     69.56% # Type of FU issued
system.switch_cpus.iq.FU_type_0::SimdSha1Hash2            0      0.00%     69.56% # Type of FU issued
system.switch_cpus.iq.FU_type_0::SimdSha256Hash            0      0.00%     69.56% # Type of FU issued
system.switch_cpus.iq.FU_type_0::SimdSha256Hash2            0      0.00%     69.56% # Type of FU issued
system.switch_cpus.iq.FU_type_0::SimdShaSigma2            0      0.00%     69.56% # Type of FU issued
system.switch_cpus.iq.FU_type_0::SimdShaSigma3            0      0.00%     69.56% # Type of FU issued
system.switch_cpus.iq.FU_type_0::SimdPredAlu            0      0.00%     69.56% # Type of FU issued
system.switch_cpus.iq.FU_type_0::MemRead      3411742     20.36%     89.92% # Type of FU issued
system.switch_cpus.iq.FU_type_0::MemWrite      1410304      8.42%     98.34% # Type of FU issued
system.switch_cpus.iq.FU_type_0::FloatMemRead       278583      1.66%    100.00% # Type of FU issued
system.switch_cpus.iq.FU_type_0::FloatMemWrite          389      0.00%    100.00% # Type of FU issued
system.switch_cpus.iq.FU_type_0::IprAccess            0      0.00%    100.00% # Type of FU issued
system.switch_cpus.iq.FU_type_0::InstPrefetch            0      0.00%    100.00% # Type of FU issued
system.switch_cpus.iq.FU_type_0::total       16756204                       # Type of FU issued
system.switch_cpus.iq.fp_alu_accesses         1575861                       # Number of floating point alu accesses
system.switch_cpus.iq.fp_inst_queue_reads      3132949                       # Number of floating instruction queue reads
system.switch_cpus.iq.fp_inst_queue_wakeup_accesses      1539871                       # Number of floating instruction queue wakeup accesses
system.switch_cpus.iq.fp_inst_queue_writes      1887082                       # Number of floating instruction queue writes
system.switch_cpus.iq.fu_busy_cnt              186586                       # FU busy when requested
system.switch_cpus.iq.fu_busy_rate           0.011135                       # FU busy rate (busy events/executed inst)
system.switch_cpus.iq.fu_full::No_OpClass            0      0.00%      0.00% # attempts to use FU when none available
system.switch_cpus.iq.fu_full::IntAlu          113268     60.71%     60.71% # attempts to use FU when none available
system.switch_cpus.iq.fu_full::IntMult              0      0.00%     60.71% # attempts to use FU when none available
system.switch_cpus.iq.fu_full::IntDiv               0      0.00%     60.71% # attempts to use FU when none available
system.switch_cpus.iq.fu_full::FloatAdd             0      0.00%     60.71% # attempts to use FU when none available
system.switch_cpus.iq.fu_full::FloatCmp             0      0.00%     60.71% # attempts to use FU when none available
system.switch_cpus.iq.fu_full::FloatCvt             0      0.00%     60.71% # attempts to use FU when none available
system.switch_cpus.iq.fu_full::FloatMult            0      0.00%     60.71% # attempts to use FU when none available
system.switch_cpus.iq.fu_full::FloatMultAcc            0      0.00%     60.71% # attempts to use FU when none available
system.switch_cpus.iq.fu_full::FloatDiv             0      0.00%     60.71% # attempts to use FU when none available
system.switch_cpus.iq.fu_full::FloatMisc            0      0.00%     60.71% # attempts to use FU when none available
system.switch_cpus.iq.fu_full::FloatSqrt            0      0.00%     60.71% # attempts to use FU when none available
system.switch_cpus.iq.fu_full::SimdAdd              0      0.00%     60.71% # attempts to use FU when none available
system.switch_cpus.iq.fu_full::SimdAddAcc            0      0.00%     60.71% # attempts to use FU when none available
system.switch_cpus.iq.fu_full::SimdAlu             75      0.04%     60.75% # attempts to use FU when none available
system.switch_cpus.iq.fu_full::SimdCmp              0      0.00%     60.75% # attempts to use FU when none available
system.switch_cpus.iq.fu_full::SimdCvt           3390      1.82%     62.56% # attempts to use FU when none available
system.switch_cpus.iq.fu_full::SimdMisc            26      0.01%     62.58% # attempts to use FU when none available
system.switch_cpus.iq.fu_full::SimdMult             0      0.00%     62.58% # attempts to use FU when none available
system.switch_cpus.iq.fu_full::SimdMultAcc            0      0.00%     62.58% # attempts to use FU when none available
system.switch_cpus.iq.fu_full::SimdShift            0      0.00%     62.58% # attempts to use FU when none available
system.switch_cpus.iq.fu_full::SimdShiftAcc            0      0.00%     62.58% # attempts to use FU when none available
system.switch_cpus.iq.fu_full::SimdDiv              0      0.00%     62.58% # attempts to use FU when none available
system.switch_cpus.iq.fu_full::SimdSqrt             0      0.00%     62.58% # attempts to use FU when none available
system.switch_cpus.iq.fu_full::SimdFloatAdd         1987      1.06%     63.64% # attempts to use FU when none available
system.switch_cpus.iq.fu_full::SimdFloatAlu            0      0.00%     63.64% # attempts to use FU when none available
system.switch_cpus.iq.fu_full::SimdFloatCmp            0      0.00%     63.64% # attempts to use FU when none available
system.switch_cpus.iq.fu_full::SimdFloatCvt         9935      5.32%     68.97% # attempts to use FU when none available
system.switch_cpus.iq.fu_full::SimdFloatDiv            0      0.00%     68.97% # attempts to use FU when none available
system.switch_cpus.iq.fu_full::SimdFloatMisc            0      0.00%     68.97% # attempts to use FU when none available
system.switch_cpus.iq.fu_full::SimdFloatMult            0      0.00%     68.97% # attempts to use FU when none available
system.switch_cpus.iq.fu_full::SimdFloatMultAcc            0      0.00%     68.97% # attempts to use FU when none available
system.switch_cpus.iq.fu_full::SimdFloatSqrt            0      0.00%     68.97% # attempts to use FU when none available
system.switch_cpus.iq.fu_full::SimdReduceAdd            0      0.00%     68.97% # attempts to use FU when none available
system.switch_cpus.iq.fu_full::SimdReduceAlu            0      0.00%     68.97% # attempts to use FU when none available
system.switch_cpus.iq.fu_full::SimdReduceCmp            0      0.00%     68.97% # attempts to use FU when none available
system.switch_cpus.iq.fu_full::SimdFloatReduceAdd            0      0.00%     68.97% # attempts to use FU when none available
system.switch_cpus.iq.fu_full::SimdFloatReduceCmp            0      0.00%     68.97% # attempts to use FU when none available
system.switch_cpus.iq.fu_full::SimdAes              0      0.00%     68.97% # attempts to use FU when none available
system.switch_cpus.iq.fu_full::SimdAesMix            0      0.00%     68.97% # attempts to use FU when none available
system.switch_cpus.iq.fu_full::SimdSha1Hash            0      0.00%     68.97% # attempts to use FU when none available
system.switch_cpus.iq.fu_full::SimdSha1Hash2            0      0.00%     68.97% # attempts to use FU when none available
system.switch_cpus.iq.fu_full::SimdSha256Hash            0      0.00%     68.97% # attempts to use FU when none available
system.switch_cpus.iq.fu_full::SimdSha256Hash2            0      0.00%     68.97% # attempts to use FU when none available
system.switch_cpus.iq.fu_full::SimdShaSigma2            0      0.00%     68.97% # attempts to use FU when none available
system.switch_cpus.iq.fu_full::SimdShaSigma3            0      0.00%     68.97% # attempts to use FU when none available
system.switch_cpus.iq.fu_full::SimdPredAlu            0      0.00%     68.97% # attempts to use FU when none available
system.switch_cpus.iq.fu_full::MemRead          53344     28.59%     97.56% # attempts to use FU when none available
system.switch_cpus.iq.fu_full::MemWrite           836      0.45%     98.00% # attempts to use FU when none available
system.switch_cpus.iq.fu_full::FloatMemRead         3725      2.00%    100.00% # attempts to use FU when none available
system.switch_cpus.iq.fu_full::FloatMemWrite            0      0.00%    100.00% # attempts to use FU when none available
system.switch_cpus.iq.fu_full::IprAccess            0      0.00%    100.00% # attempts to use FU when none available
system.switch_cpus.iq.fu_full::InstPrefetch            0      0.00%    100.00% # attempts to use FU when none available
system.switch_cpus.iq.int_alu_accesses       15267172                       # Number of integer alu accesses
system.switch_cpus.iq.int_inst_queue_reads     36252354                       # Number of integer instruction queue reads
system.switch_cpus.iq.int_inst_queue_wakeup_accesses     15170249                       # Number of integer instruction queue wakeup accesses
system.switch_cpus.iq.int_inst_queue_writes     16523970                       # Number of integer instruction queue writes
system.switch_cpus.iq.iqInstsAdded           17219589                       # Number of instructions added to the IQ (excludes non-spec)
system.switch_cpus.iq.iqInstsIssued          16756204                       # Number of instructions issued
system.switch_cpus.iq.iqNonSpecInstsAdded           20                       # Number of non-speculative instructions added to the IQ
system.switch_cpus.iq.iqSquashedInstsExamined      1191194                       # Number of squashed instructions iterated over during squash; mainly for profiling
system.switch_cpus.iq.iqSquashedInstsIssued        77728                       # Number of squashed instructions issued
system.switch_cpus.iq.iqSquashedNonSpecRemoved           20                       # Number of squashed non-spec instructions that were removed
system.switch_cpus.iq.iqSquashedOperandsExamined      1725419                       # Number of squashed operands that are examined and possibly removed from graph
system.switch_cpus.iq.issued_per_cycle::samples      5608582                       # Number of insts issued each cycle
system.switch_cpus.iq.issued_per_cycle::mean     2.987601                       # Number of insts issued each cycle
system.switch_cpus.iq.issued_per_cycle::stdev     2.317727                       # Number of insts issued each cycle
system.switch_cpus.iq.issued_per_cycle::underflows            0      0.00%      0.00% # Number of insts issued each cycle
system.switch_cpus.iq.issued_per_cycle::0      1104429     19.69%     19.69% # Number of insts issued each cycle
system.switch_cpus.iq.issued_per_cycle::1       596134     10.63%     30.32% # Number of insts issued each cycle
system.switch_cpus.iq.issued_per_cycle::2       886296     15.80%     46.12% # Number of insts issued each cycle
system.switch_cpus.iq.issued_per_cycle::3       821530     14.65%     60.77% # Number of insts issued each cycle
system.switch_cpus.iq.issued_per_cycle::4       718841     12.82%     73.59% # Number of insts issued each cycle
system.switch_cpus.iq.issued_per_cycle::5       617175     11.00%     84.59% # Number of insts issued each cycle
system.switch_cpus.iq.issued_per_cycle::6       346306      6.17%     90.77% # Number of insts issued each cycle
system.switch_cpus.iq.issued_per_cycle::7       259155      4.62%     95.39% # Number of insts issued each cycle
system.switch_cpus.iq.issued_per_cycle::8       258716      4.61%    100.00% # Number of insts issued each cycle
system.switch_cpus.iq.issued_per_cycle::overflows            0      0.00%    100.00% # Number of insts issued each cycle
system.switch_cpus.iq.issued_per_cycle::min_value            0                       # Number of insts issued each cycle
system.switch_cpus.iq.issued_per_cycle::max_value            8                       # Number of insts issued each cycle
system.switch_cpus.iq.issued_per_cycle::total      5608582                       # Number of insts issued each cycle
system.switch_cpus.iq.rate                   2.981994                       # Inst issue rate
system.switch_cpus.iq.vec_alu_accesses              0                       # Number of vector alu accesses
system.switch_cpus.iq.vec_inst_queue_reads            0                       # Number of vector instruction queue reads
system.switch_cpus.iq.vec_inst_queue_wakeup_accesses            0                       # Number of vector instruction queue wakeup accesses
system.switch_cpus.iq.vec_inst_queue_writes            0                       # Number of vector instruction queue writes
system.switch_cpus.itb.rdAccesses                   0                       # TLB accesses on read requests
system.switch_cpus.itb.rdMisses                     0                       # TLB misses on read requests
system.switch_cpus.itb.wrAccesses              844189                       # TLB accesses on write requests
system.switch_cpus.itb.wrMisses                    45                       # TLB misses on write requests
system.switch_cpus.memDep0.conflictingLoads       382873                       # Number of conflicting loads.
system.switch_cpus.memDep0.conflictingStores       301412                       # Number of conflicting stores.
system.switch_cpus.memDep0.insertedLoads      3713864                       # Number of loads inserted to the mem dependence unit.
system.switch_cpus.memDep0.insertedStores      1423376                       # Number of stores inserted to the mem dependence unit.
system.switch_cpus.misc_regfile_reads         6713702                       # number of misc regfile reads
system.switch_cpus.misc_regfile_writes              1                       # number of misc regfile writes
system.switch_cpus.numCycles                  5619127                       # number of cpu cycles simulated
system.switch_cpus.numWorkItemsCompleted            0                       # number of work items this cpu completed
system.switch_cpus.numWorkItemsStarted              0                       # number of work items this cpu started
system.switch_cpus.rename.BlockCycles          303078                       # Number of cycles rename is blocking
system.switch_cpus.rename.CommittedMaps      20724563                       # Number of HB maps that are committed
system.switch_cpus.rename.IQFullEvents         135864                       # Number of times rename has blocked due to IQ full
system.switch_cpus.rename.IdleCycles           869566                       # Number of cycles rename is idle
system.switch_cpus.rename.LQFullEvents         534798                       # Number of times rename has blocked due to LQ full
system.switch_cpus.rename.ROBFullEvents          3658                       # Number of times rename has blocked due to ROB full
system.switch_cpus.rename.RenameLookups      54809745                       # Number of register rename lookups that rename has made
system.switch_cpus.rename.RenamedInsts       17441930                       # Number of instructions processed by rename
system.switch_cpus.rename.RenamedOperands     22417226                       # Number of destination operands rename has renamed
system.switch_cpus.rename.RunCycles           1988516                       # Number of cycles rename is running
system.switch_cpus.rename.SQFullEvents        1492803                       # Number of times rename has blocked due to SQ full
system.switch_cpus.rename.SquashCycles          19215                       # Number of cycles rename is squashing
system.switch_cpus.rename.UnblockCycles       2428201                       # Number of cycles rename is unblocking
system.switch_cpus.rename.UndoneMaps          1692582                       # Number of HB maps that are undone due to squashing
system.switch_cpus.rename.fp_rename_lookups      2999800                       # Number of floating rename lookups
system.switch_cpus.rename.int_rename_lookups     29953604                       # Number of integer rename lookups
system.switch_cpus.rename.serializeStallCycles            0                       # count of cycles rename stalled for serializing inst
system.switch_cpus.rename.serializingInsts            0                       # count of serializing insts renamed
system.switch_cpus.rename.skidInsts           4150315                       # count of insts added to the skid buffer
system.switch_cpus.rename.tempSerializingInsts            0                       # count of temporary serializing insts renamed
system.switch_cpus.rob.rob_reads             21385664                       # The number of ROB reads
system.switch_cpus.rob.rob_writes            34599074                       # The number of ROB writes
system.switch_cpus.timesIdled                     154                       # Number of times that the entire CPU went into an idle state and unscheduled itself
system.tol2bus.snoop_filter.hit_multi_requests            0                       # Number of requests hitting in the snoop filter with multiple (>1) holders of the requested data.
system.tol2bus.snoop_filter.hit_multi_snoops            0                       # Number of snoops hitting in the snoop filter with multiple (>1) holders of the requested data.
system.tol2bus.snoop_filter.hit_single_requests        24582                       # Number of requests hitting in the snoop filter with a single holder of the requested data.
system.tol2bus.snoop_filter.hit_single_snoops         2727                       # Number of snoops hitting in the snoop filter with a single holder of the requested data.
system.tol2bus.snoop_filter.tot_requests        50317                       # Total number of requests made to the snoop filter.
system.tol2bus.snoop_filter.tot_snoops           2727                       # Total number of snoops made to the snoop filter.
system.membus.pwrStateResidencyTicks::UNDEFINED 70893018850000                       # Cumulative time (in ticks) in various power states
system.membus.trans_dist::ReadResp               1873                       # Transaction distribution
system.membus.trans_dist::WritebackDirty         2997                       # Transaction distribution
system.membus.trans_dist::CleanEvict             1249                       # Transaction distribution
system.membus.trans_dist::ReadExReq              4584                       # Transaction distribution
system.membus.trans_dist::ReadExResp             4584                       # Transaction distribution
system.membus.trans_dist::ReadSharedReq          1873                       # Transaction distribution
system.membus.pkt_count_system.l2.mem_side::system.mem_ctrls.port        17160                       # Packet count per connected master and slave (bytes)
system.membus.pkt_count_system.l2.mem_side::total        17160                       # Packet count per connected master and slave (bytes)
system.membus.pkt_count::total                  17160                       # Packet count per connected master and slave (bytes)
system.membus.pkt_size_system.l2.mem_side::system.mem_ctrls.port       605056                       # Cumulative packet size per connected master and slave (bytes)
system.membus.pkt_size_system.l2.mem_side::total       605056                       # Cumulative packet size per connected master and slave (bytes)
system.membus.pkt_size::total                  605056                       # Cumulative packet size per connected master and slave (bytes)
system.membus.snoops                                0                       # Total snoops (count)
system.membus.snoopTraffic                          0                       # Total snoop traffic (bytes)
system.membus.snoop_fanout::samples              6457                       # Request fanout histogram
system.membus.snoop_fanout::mean                    0                       # Request fanout histogram
system.membus.snoop_fanout::stdev                   0                       # Request fanout histogram
system.membus.snoop_fanout::underflows              0      0.00%      0.00% # Request fanout histogram
system.membus.snoop_fanout::0                    6457    100.00%    100.00% # Request fanout histogram
system.membus.snoop_fanout::1                       0      0.00%    100.00% # Request fanout histogram
system.membus.snoop_fanout::overflows               0      0.00%    100.00% # Request fanout histogram
system.membus.snoop_fanout::min_value               0                       # Request fanout histogram
system.membus.snoop_fanout::max_value               0                       # Request fanout histogram
system.membus.snoop_fanout::total                6457                       # Request fanout histogram
system.membus.reqLayer2.occupancy            24341000                       # Layer occupancy (ticks)
system.membus.reqLayer2.utilization               0.9                       # Layer utilization (%)
system.membus.respLayer1.occupancy           34404000                       # Layer occupancy (ticks)
system.membus.respLayer1.utilization              1.2                       # Layer utilization (%)
system.switch_cpus.pwrStateResidencyTicks::OFF   2809573750                       # Cumulative time (in ticks) in various power states
system.switch_cpus.dtb.walker.pwrStateResidencyTicks::UNDEFINED 70893018850000                       # Cumulative time (in ticks) in various power states
system.switch_cpus.itb.walker.pwrStateResidencyTicks::UNDEFINED 70893018850000                       # Cumulative time (in ticks) in various power states
system.tol2bus.pwrStateResidencyTicks::UNDEFINED 70893018850000                       # Cumulative time (in ticks) in various power states
system.tol2bus.trans_dist::ReadResp              5847                       # Transaction distribution
system.tol2bus.trans_dist::WritebackDirty        22561                       # Transaction distribution
system.tol2bus.trans_dist::WritebackClean          211                       # Transaction distribution
system.tol2bus.trans_dist::CleanEvict            8242                       # Transaction distribution
system.tol2bus.trans_dist::ReadExReq            19888                       # Transaction distribution
system.tol2bus.trans_dist::ReadExResp           19887                       # Transaction distribution
system.tol2bus.trans_dist::ReadCleanReq           339                       # Transaction distribution
system.tol2bus.trans_dist::ReadSharedReq         5508                       # Transaction distribution
system.tol2bus.pkt_count_system.cpu.icache.mem_side::system.l2.cpu_side          889                       # Packet count per connected master and slave (bytes)
system.tol2bus.pkt_count_system.cpu.dcache.mem_side::system.l2.cpu_side        75162                       # Packet count per connected master and slave (bytes)
system.tol2bus.pkt_count::total                 76051                       # Packet count per connected master and slave (bytes)
system.tol2bus.pkt_size_system.cpu.icache.mem_side::system.l2.cpu_side        35200                       # Cumulative packet size per connected master and slave (bytes)
system.tol2bus.pkt_size_system.cpu.dcache.mem_side::system.l2.cpu_side      2877376                       # Cumulative packet size per connected master and slave (bytes)
system.tol2bus.pkt_size::total                2912576                       # Cumulative packet size per connected master and slave (bytes)
system.tol2bus.snoops                            6432                       # Total snoops (count)
system.tol2bus.snoopTraffic                    191808                       # Total snoop traffic (bytes)
system.tol2bus.snoop_fanout::samples            32167                       # Request fanout histogram
system.tol2bus.snoop_fanout::mean            0.084776                       # Request fanout histogram
system.tol2bus.snoop_fanout::stdev           0.278553                       # Request fanout histogram
system.tol2bus.snoop_fanout::underflows             0      0.00%      0.00% # Request fanout histogram
system.tol2bus.snoop_fanout::0                  29440     91.52%     91.52% # Request fanout histogram
system.tol2bus.snoop_fanout::1                   2727      8.48%    100.00% # Request fanout histogram
system.tol2bus.snoop_fanout::2                      0      0.00%    100.00% # Request fanout histogram
system.tol2bus.snoop_fanout::3                      0      0.00%    100.00% # Request fanout histogram
system.tol2bus.snoop_fanout::4                      0      0.00%    100.00% # Request fanout histogram
system.tol2bus.snoop_fanout::overflows              0      0.00%    100.00% # Request fanout histogram
system.tol2bus.snoop_fanout::min_value              0                       # Request fanout histogram
system.tol2bus.snoop_fanout::max_value              1                       # Request fanout histogram
system.tol2bus.snoop_fanout::total              32167                       # Request fanout histogram
system.tol2bus.reqLayer0.occupancy           44929500                       # Layer occupancy (ticks)
system.tol2bus.reqLayer0.utilization              1.6                       # Layer utilization (%)
system.tol2bus.respLayer1.occupancy          38083500                       # Layer occupancy (ticks)
system.tol2bus.respLayer1.utilization             1.4                       # Layer utilization (%)
system.tol2bus.respLayer0.occupancy            505500                       # Layer occupancy (ticks)
system.tol2bus.respLayer0.utilization             0.0                       # Layer utilization (%)
system.voltage_domain.voltage                       1                       # Voltage in Volts
system.clk_domain.clock                          1000                       # Clock period in ticks
system.l2.pwrStateResidencyTicks::UNDEFINED 70893018850000                       # Cumulative time (in ticks) in various power states
system.l2.demand_hits::.switch_cpus.inst          185                       # number of demand (read+write) hits
system.l2.demand_hits::.switch_cpus.data        19093                       # number of demand (read+write) hits
system.l2.demand_hits::total                    19278                       # number of demand (read+write) hits
system.l2.overall_hits::.switch_cpus.inst          185                       # number of overall hits
system.l2.overall_hits::.switch_cpus.data        19093                       # number of overall hits
system.l2.overall_hits::total                   19278                       # number of overall hits
system.l2.demand_misses::.cpu.inst                  2                       # number of demand (read+write) misses
system.l2.demand_misses::.cpu.data                  6                       # number of demand (read+write) misses
system.l2.demand_misses::.switch_cpus.inst          152                       # number of demand (read+write) misses
system.l2.demand_misses::.switch_cpus.data         6297                       # number of demand (read+write) misses
system.l2.demand_misses::total                   6457                       # number of demand (read+write) misses
system.l2.overall_misses::.cpu.inst                 2                       # number of overall misses
system.l2.overall_misses::.cpu.data                 6                       # number of overall misses
system.l2.overall_misses::.switch_cpus.inst          152                       # number of overall misses
system.l2.overall_misses::.switch_cpus.data         6297                       # number of overall misses
system.l2.overall_misses::total                  6457                       # number of overall misses
system.l2.demand_miss_latency::.switch_cpus.inst     12029500                       # number of demand (read+write) miss cycles
system.l2.demand_miss_latency::.switch_cpus.data    509044500                       # number of demand (read+write) miss cycles
system.l2.demand_miss_latency::total        521074000                       # number of demand (read+write) miss cycles
system.l2.overall_miss_latency::.switch_cpus.inst     12029500                       # number of overall miss cycles
system.l2.overall_miss_latency::.switch_cpus.data    509044500                       # number of overall miss cycles
system.l2.overall_miss_latency::total       521074000                       # number of overall miss cycles
system.l2.demand_accesses::.cpu.inst                2                       # number of demand (read+write) accesses
system.l2.demand_accesses::.cpu.data                6                       # number of demand (read+write) accesses
system.l2.demand_accesses::.switch_cpus.inst          337                       # number of demand (read+write) accesses
system.l2.demand_accesses::.switch_cpus.data        25390                       # number of demand (read+write) accesses
system.l2.demand_accesses::total                25735                       # number of demand (read+write) accesses
system.l2.overall_accesses::.cpu.inst               2                       # number of overall (read+write) accesses
system.l2.overall_accesses::.cpu.data               6                       # number of overall (read+write) accesses
system.l2.overall_accesses::.switch_cpus.inst          337                       # number of overall (read+write) accesses
system.l2.overall_accesses::.switch_cpus.data        25390                       # number of overall (read+write) accesses
system.l2.overall_accesses::total               25735                       # number of overall (read+write) accesses
system.l2.demand_miss_rate::.cpu.inst               1                       # miss rate for demand accesses
system.l2.demand_miss_rate::.cpu.data               1                       # miss rate for demand accesses
system.l2.demand_miss_rate::.switch_cpus.inst     0.451039                       # miss rate for demand accesses
system.l2.demand_miss_rate::.switch_cpus.data     0.248011                       # miss rate for demand accesses
system.l2.demand_miss_rate::total            0.250903                       # miss rate for demand accesses
system.l2.overall_miss_rate::.cpu.inst              1                       # miss rate for overall accesses
system.l2.overall_miss_rate::.cpu.data              1                       # miss rate for overall accesses
system.l2.overall_miss_rate::.switch_cpus.inst     0.451039                       # miss rate for overall accesses
system.l2.overall_miss_rate::.switch_cpus.data     0.248011                       # miss rate for overall accesses
system.l2.overall_miss_rate::total           0.250903                       # miss rate for overall accesses
system.l2.demand_avg_miss_latency::.switch_cpus.inst 79141.447368                       # average overall miss latency
system.l2.demand_avg_miss_latency::.switch_cpus.data 80839.209147                       # average overall miss latency
system.l2.demand_avg_miss_latency::total 80699.086263                       # average overall miss latency
system.l2.overall_avg_miss_latency::.switch_cpus.inst 79141.447368                       # average overall miss latency
system.l2.overall_avg_miss_latency::.switch_cpus.data 80839.209147                       # average overall miss latency
system.l2.overall_avg_miss_latency::total 80699.086263                       # average overall miss latency
system.l2.blocked_cycles::no_mshrs                  0                       # number of cycles access was blocked
system.l2.blocked_cycles::no_targets                0                       # number of cycles access was blocked
system.l2.blocked::no_mshrs                         0                       # number of cycles access was blocked
system.l2.blocked::no_targets                       0                       # number of cycles access was blocked
system.l2.avg_blocked_cycles::no_mshrs            nan                       # average number of cycles each access was blocked
system.l2.avg_blocked_cycles::no_targets          nan                       # average number of cycles each access was blocked
system.l2.writebacks::.writebacks                2997                       # number of writebacks
system.l2.writebacks::total                      2997                       # number of writebacks
system.l2.demand_mshr_misses::.switch_cpus.inst          152                       # number of demand (read+write) MSHR misses
system.l2.demand_mshr_misses::.switch_cpus.data         6297                       # number of demand (read+write) MSHR misses
system.l2.demand_mshr_misses::total              6449                       # number of demand (read+write) MSHR misses
system.l2.overall_mshr_misses::.switch_cpus.inst          152                       # number of overall MSHR misses
system.l2.overall_mshr_misses::.switch_cpus.data         6297                       # number of overall MSHR misses
system.l2.overall_mshr_misses::total             6449                       # number of overall MSHR misses
system.l2.demand_mshr_miss_latency::.switch_cpus.inst     10509500                       # number of demand (read+write) MSHR miss cycles
system.l2.demand_mshr_miss_latency::.switch_cpus.data    446074500                       # number of demand (read+write) MSHR miss cycles
system.l2.demand_mshr_miss_latency::total    456584000                       # number of demand (read+write) MSHR miss cycles
system.l2.overall_mshr_miss_latency::.switch_cpus.inst     10509500                       # number of overall MSHR miss cycles
system.l2.overall_mshr_miss_latency::.switch_cpus.data    446074500                       # number of overall MSHR miss cycles
system.l2.overall_mshr_miss_latency::total    456584000                       # number of overall MSHR miss cycles
system.l2.demand_mshr_miss_rate::.switch_cpus.inst     0.451039                       # mshr miss rate for demand accesses
system.l2.demand_mshr_miss_rate::.switch_cpus.data     0.248011                       # mshr miss rate for demand accesses
system.l2.demand_mshr_miss_rate::total       0.250593                       # mshr miss rate for demand accesses
system.l2.overall_mshr_miss_rate::.switch_cpus.inst     0.451039                       # mshr miss rate for overall accesses
system.l2.overall_mshr_miss_rate::.switch_cpus.data     0.248011                       # mshr miss rate for overall accesses
system.l2.overall_mshr_miss_rate::total      0.250593                       # mshr miss rate for overall accesses
system.l2.demand_avg_mshr_miss_latency::.switch_cpus.inst 69141.447368                       # average overall mshr miss latency
system.l2.demand_avg_mshr_miss_latency::.switch_cpus.data 70839.209147                       # average overall mshr miss latency
system.l2.demand_avg_mshr_miss_latency::total 70799.193673                       # average overall mshr miss latency
system.l2.overall_avg_mshr_miss_latency::.switch_cpus.inst 69141.447368                       # average overall mshr miss latency
system.l2.overall_avg_mshr_miss_latency::.switch_cpus.data 70839.209147                       # average overall mshr miss latency
system.l2.overall_avg_mshr_miss_latency::total 70799.193673                       # average overall mshr miss latency
system.l2.replacements                           6432                       # number of replacements
system.l2.WritebackDirty_hits::.writebacks        19564                       # number of WritebackDirty hits
system.l2.WritebackDirty_hits::total            19564                       # number of WritebackDirty hits
system.l2.WritebackDirty_accesses::.writebacks        19564                       # number of WritebackDirty accesses(hits+misses)
system.l2.WritebackDirty_accesses::total        19564                       # number of WritebackDirty accesses(hits+misses)
system.l2.WritebackClean_hits::.writebacks          211                       # number of WritebackClean hits
system.l2.WritebackClean_hits::total              211                       # number of WritebackClean hits
system.l2.WritebackClean_accesses::.writebacks          211                       # number of WritebackClean accesses(hits+misses)
system.l2.WritebackClean_accesses::total          211                       # number of WritebackClean accesses(hits+misses)
system.l2.CleanEvict_mshr_misses::.writebacks          541                       # number of CleanEvict MSHR misses
system.l2.CleanEvict_mshr_misses::total           541                       # number of CleanEvict MSHR misses
system.l2.CleanEvict_mshr_miss_rate::.writebacks          inf                       # mshr miss rate for CleanEvict accesses
system.l2.CleanEvict_mshr_miss_rate::total          inf                       # mshr miss rate for CleanEvict accesses
system.l2.ReadExReq_hits::.switch_cpus.data        15304                       # number of ReadExReq hits
system.l2.ReadExReq_hits::total                 15304                       # number of ReadExReq hits
system.l2.ReadExReq_misses::.cpu.data               2                       # number of ReadExReq misses
system.l2.ReadExReq_misses::.switch_cpus.data         4582                       # number of ReadExReq misses
system.l2.ReadExReq_misses::total                4584                       # number of ReadExReq misses
system.l2.ReadExReq_miss_latency::.switch_cpus.data    358542500                       # number of ReadExReq miss cycles
system.l2.ReadExReq_miss_latency::total     358542500                       # number of ReadExReq miss cycles
system.l2.ReadExReq_accesses::.cpu.data             2                       # number of ReadExReq accesses(hits+misses)
system.l2.ReadExReq_accesses::.switch_cpus.data        19886                       # number of ReadExReq accesses(hits+misses)
system.l2.ReadExReq_accesses::total             19888                       # number of ReadExReq accesses(hits+misses)
system.l2.ReadExReq_miss_rate::.cpu.data            1                       # miss rate for ReadExReq accesses
system.l2.ReadExReq_miss_rate::.switch_cpus.data     0.230413                       # miss rate for ReadExReq accesses
system.l2.ReadExReq_miss_rate::total         0.230491                       # miss rate for ReadExReq accesses
system.l2.ReadExReq_avg_miss_latency::.switch_cpus.data 78250.218245                       # average ReadExReq miss latency
system.l2.ReadExReq_avg_miss_latency::total 78216.077661                       # average ReadExReq miss latency
system.l2.ReadExReq_mshr_misses::.switch_cpus.data         4582                       # number of ReadExReq MSHR misses
system.l2.ReadExReq_mshr_misses::total           4582                       # number of ReadExReq MSHR misses
system.l2.ReadExReq_mshr_miss_latency::.switch_cpus.data    312722500                       # number of ReadExReq MSHR miss cycles
system.l2.ReadExReq_mshr_miss_latency::total    312722500                       # number of ReadExReq MSHR miss cycles
system.l2.ReadExReq_mshr_miss_rate::.switch_cpus.data     0.230413                       # mshr miss rate for ReadExReq accesses
system.l2.ReadExReq_mshr_miss_rate::total     0.230390                       # mshr miss rate for ReadExReq accesses
system.l2.ReadExReq_avg_mshr_miss_latency::.switch_cpus.data 68250.218245                       # average ReadExReq mshr miss latency
system.l2.ReadExReq_avg_mshr_miss_latency::total 68250.218245                       # average ReadExReq mshr miss latency
system.l2.ReadCleanReq_hits::.switch_cpus.inst          185                       # number of ReadCleanReq hits
system.l2.ReadCleanReq_hits::total                185                       # number of ReadCleanReq hits
system.l2.ReadCleanReq_misses::.cpu.inst            2                       # number of ReadCleanReq misses
system.l2.ReadCleanReq_misses::.switch_cpus.inst          152                       # number of ReadCleanReq misses
system.l2.ReadCleanReq_misses::total              154                       # number of ReadCleanReq misses
system.l2.ReadCleanReq_miss_latency::.switch_cpus.inst     12029500                       # number of ReadCleanReq miss cycles
system.l2.ReadCleanReq_miss_latency::total     12029500                       # number of ReadCleanReq miss cycles
system.l2.ReadCleanReq_accesses::.cpu.inst            2                       # number of ReadCleanReq accesses(hits+misses)
system.l2.ReadCleanReq_accesses::.switch_cpus.inst          337                       # number of ReadCleanReq accesses(hits+misses)
system.l2.ReadCleanReq_accesses::total            339                       # number of ReadCleanReq accesses(hits+misses)
system.l2.ReadCleanReq_miss_rate::.cpu.inst            1                       # miss rate for ReadCleanReq accesses
system.l2.ReadCleanReq_miss_rate::.switch_cpus.inst     0.451039                       # miss rate for ReadCleanReq accesses
[...]
system.cpu.dtb_walker_cache.pwrStateResidencyTicks::UNDEFINED 70901610118500                       # Cumulative time (in ticks) in various power states
system.cpu.dtb_walker_cache.blocked_cycles::no_mshrs            0                       # number of cycles access was blocked
system.cpu.dtb_walker_cache.blocked_cycles::no_targets            0                       # number of cycles access was blocked
system.cpu.dtb_walker_cache.blocked::no_mshrs            0                       # number of cycles access was blocked
system.cpu.dtb_walker_cache.blocked::no_targets            0                       # number of cycles access was blocked
system.cpu.dtb_walker_cache.avg_blocked_cycles::no_mshrs          nan                       # average number of cycles each access was blocked
system.cpu.dtb_walker_cache.avg_blocked_cycles::no_targets          nan                       # average number of cycles each access was blocked
system.cpu.dtb_walker_cache.replacements            0                       # number of replacements
system.cpu.dtb_walker_cache.tags.pwrStateResidencyTicks::UNDEFINED 70901610118500                       # Cumulative time (in ticks) in various power states
system.cpu.dtb_walker_cache.tags.tagsinuse            0                       # Cycle average of tags in use
system.cpu.dtb_walker_cache.tags.total_refs            0                       # Total number of references to valid blocks.
system.cpu.dtb_walker_cache.tags.sampled_refs            0                       # Sample count of references to valid blocks.
system.cpu.dtb_walker_cache.tags.avg_refs          nan                       # Average number of references to valid blocks.
system.cpu.dtb_walker_cache.tags.warmup_cycle            0                       # Cycle when the warmup percentage was hit.
system.cpu.dtb_walker_cache.tags.tag_accesses            0                       # Number of tag accesses
system.cpu.dtb_walker_cache.tags.data_accesses            0                       # Number of data accesses
system.cpu.dcache.pwrStateResidencyTicks::UNDEFINED 70901610118500                       # Cumulative time (in ticks) in various power states
system.cpu.dcache.demand_hits::.cpu.data            1                       # number of demand (read+write) hits
system.cpu.dcache.demand_hits::.switch_cpus.data     18887305                       # number of demand (read+write) hits
system.cpu.dcache.demand_hits::total         18887306                       # number of demand (read+write) hits
system.cpu.dcache.overall_hits::.cpu.data            1                       # number of overall hits
system.cpu.dcache.overall_hits::.switch_cpus.data     18932977                       # number of overall hits
system.cpu.dcache.overall_hits::total        18932978                       # number of overall hits
system.cpu.dcache.demand_misses::.cpu.data            6                       # number of demand (read+write) misses
system.cpu.dcache.demand_misses::.switch_cpus.data       107392                       # number of demand (read+write) misses
system.cpu.dcache.demand_misses::total         107398                       # number of demand (read+write) misses
system.cpu.dcache.overall_misses::.cpu.data            6                       # number of overall misses
system.cpu.dcache.overall_misses::.switch_cpus.data       113096                       # number of overall misses
system.cpu.dcache.overall_misses::total        113102                       # number of overall misses
system.cpu.dcache.demand_miss_latency::.switch_cpus.data   3146947490                       # number of demand (read+write) miss cycles
system.cpu.dcache.demand_miss_latency::total   3146947490                       # number of demand (read+write) miss cycles
system.cpu.dcache.overall_miss_latency::.switch_cpus.data   3146947490                       # number of overall miss cycles
system.cpu.dcache.overall_miss_latency::total   3146947490                       # number of overall miss cycles
system.cpu.dcache.demand_accesses::.cpu.data            7                       # number of demand (read+write) accesses
system.cpu.dcache.demand_accesses::.switch_cpus.data     18994697                       # number of demand (read+write) accesses
system.cpu.dcache.demand_accesses::total     18994704                       # number of demand (read+write) accesses
system.cpu.dcache.overall_accesses::.cpu.data            7                       # number of overall (read+write) accesses
system.cpu.dcache.overall_accesses::.switch_cpus.data     19046073                       # number of overall (read+write) accesses
system.cpu.dcache.overall_accesses::total     19046080                       # number of overall (read+write) accesses
system.cpu.dcache.demand_miss_rate::.cpu.data     0.857143                       # miss rate for demand accesses
system.cpu.dcache.demand_miss_rate::.switch_cpus.data     0.005654                       # miss rate for demand accesses
system.cpu.dcache.demand_miss_rate::total     0.005654                       # miss rate for demand accesses
system.cpu.dcache.overall_miss_rate::.cpu.data     0.857143                       # miss rate for overall accesses
system.cpu.dcache.overall_miss_rate::.switch_cpus.data     0.005938                       # miss rate for overall accesses
system.cpu.dcache.overall_miss_rate::total     0.005938                       # miss rate for overall accesses
system.cpu.dcache.demand_avg_miss_latency::.switch_cpus.data 29303.369804                       # average overall miss latency
system.cpu.dcache.demand_avg_miss_latency::total 29301.732714                       # average overall miss latency
system.cpu.dcache.overall_avg_miss_latency::.switch_cpus.data 27825.453509                       # average overall miss latency
system.cpu.dcache.overall_avg_miss_latency::total 27823.977383                       # average overall miss latency
system.cpu.dcache.blocked_cycles::no_mshrs        19598                       # number of cycles access was blocked
system.cpu.dcache.blocked_cycles::no_targets          584                       # number of cycles access was blocked
system.cpu.dcache.blocked::no_mshrs               928                       # number of cycles access was blocked
system.cpu.dcache.blocked::no_targets               6                       # number of cycles access was blocked
system.cpu.dcache.avg_blocked_cycles::no_mshrs    21.118534                       # average number of cycles each access was blocked
system.cpu.dcache.avg_blocked_cycles::no_targets    97.333333                       # average number of cycles each access was blocked
system.cpu.dcache.writebacks::.writebacks        83142                       # number of writebacks
system.cpu.dcache.writebacks::total             83142                       # number of writebacks
system.cpu.dcache.demand_mshr_hits::.switch_cpus.data         4372                       # number of demand (read+write) MSHR hits
system.cpu.dcache.demand_mshr_hits::total         4372                       # number of demand (read+write) MSHR hits
system.cpu.dcache.overall_mshr_hits::.switch_cpus.data         4372                       # number of overall MSHR hits
system.cpu.dcache.overall_mshr_hits::total         4372                       # number of overall MSHR hits
system.cpu.dcache.demand_mshr_misses::.switch_cpus.data       103020                       # number of demand (read+write) MSHR misses
system.cpu.dcache.demand_mshr_misses::total       103020                       # number of demand (read+write) MSHR misses
system.cpu.dcache.overall_mshr_misses::.switch_cpus.data       105088                       # number of overall MSHR misses
system.cpu.dcache.overall_mshr_misses::total       105088                       # number of overall MSHR misses
system.cpu.dcache.demand_mshr_miss_latency::.switch_cpus.data   2915636992                       # number of demand (read+write) MSHR miss cycles
system.cpu.dcache.demand_mshr_miss_latency::total   2915636992                       # number of demand (read+write) MSHR miss cycles
system.cpu.dcache.overall_mshr_miss_latency::.switch_cpus.data   3058818992                       # number of overall MSHR miss cycles
system.cpu.dcache.overall_mshr_miss_latency::total   3058818992                       # number of overall MSHR miss cycles
system.cpu.dcache.demand_mshr_miss_rate::.switch_cpus.data     0.005424                       # mshr miss rate for demand accesses
system.cpu.dcache.demand_mshr_miss_rate::total     0.005424                       # mshr miss rate for demand accesses
system.cpu.dcache.overall_mshr_miss_rate::.switch_cpus.data     0.005518                       # mshr miss rate for overall accesses
system.cpu.dcache.overall_mshr_miss_rate::total     0.005518                       # mshr miss rate for overall accesses
system.cpu.dcache.demand_avg_mshr_miss_latency::.switch_cpus.data 28301.659794                       # average overall mshr miss latency
system.cpu.dcache.demand_avg_mshr_miss_latency::total 28301.659794                       # average overall mshr miss latency
system.cpu.dcache.overall_avg_mshr_miss_latency::.switch_cpus.data 29107.214829                       # average overall mshr miss latency
system.cpu.dcache.overall_avg_mshr_miss_latency::total 29107.214829                       # average overall mshr miss latency
system.cpu.dcache.replacements                 104070                       # number of replacements
system.cpu.dcache.ReadReq_hits::.cpu.data            1                       # number of ReadReq hits
system.cpu.dcache.ReadReq_hits::.switch_cpus.data     13355541                       # number of ReadReq hits
system.cpu.dcache.ReadReq_hits::total        13355542                       # number of ReadReq hits
system.cpu.dcache.ReadReq_misses::.cpu.data            4                       # number of ReadReq misses
system.cpu.dcache.ReadReq_misses::.switch_cpus.data        26016                       # number of ReadReq misses
system.cpu.dcache.ReadReq_misses::total         26020                       # number of ReadReq misses
system.cpu.dcache.ReadReq_miss_latency::.switch_cpus.data    864139000                       # number of ReadReq miss cycles
system.cpu.dcache.ReadReq_miss_latency::total    864139000                       # number of ReadReq miss cycles
system.cpu.dcache.ReadReq_accesses::.cpu.data            5                       # number of ReadReq accesses(hits+misses)
system.cpu.dcache.ReadReq_accesses::.switch_cpus.data     13381557                       # number of ReadReq accesses(hits+misses)
system.cpu.dcache.ReadReq_accesses::total     13381562                       # number of ReadReq accesses(hits+misses)
system.cpu.dcache.ReadReq_miss_rate::.cpu.data     0.800000                       # miss rate for ReadReq accesses
system.cpu.dcache.ReadReq_miss_rate::.switch_cpus.data     0.001944                       # miss rate for ReadReq accesses
system.cpu.dcache.ReadReq_miss_rate::total     0.001944                       # miss rate for ReadReq accesses
system.cpu.dcache.ReadReq_avg_miss_latency::.switch_cpus.data 33215.674969                       # average ReadReq miss latency
system.cpu.dcache.ReadReq_avg_miss_latency::total 33210.568793                       # average ReadReq miss latency
system.cpu.dcache.ReadReq_mshr_hits::.switch_cpus.data         4347                       # number of ReadReq MSHR hits
system.cpu.dcache.ReadReq_mshr_hits::total         4347                       # number of ReadReq MSHR hits
system.cpu.dcache.ReadReq_mshr_misses::.switch_cpus.data        21669                       # number of ReadReq MSHR misses
system.cpu.dcache.ReadReq_mshr_misses::total        21669                       # number of ReadReq MSHR misses
system.cpu.dcache.ReadReq_mshr_miss_latency::.switch_cpus.data    714685000                       # number of ReadReq MSHR miss cycles
system.cpu.dcache.ReadReq_mshr_miss_latency::total    714685000                       # number of ReadReq MSHR miss cycles
system.cpu.dcache.ReadReq_mshr_miss_rate::.switch_cpus.data     0.001619                       # mshr miss rate for ReadReq accesses
system.cpu.dcache.ReadReq_mshr_miss_rate::total     0.001619                       # mshr miss rate for ReadReq accesses
system.cpu.dcache.ReadReq_avg_mshr_miss_latency::.switch_cpus.data 32981.909641                       # average ReadReq mshr miss latency
system.cpu.dcache.ReadReq_avg_mshr_miss_latency::total 32981.909641                       # average ReadReq mshr miss latency
system.cpu.dcache.WriteReq_hits::.switch_cpus.data      5531764                       # number of WriteReq hits
system.cpu.dcache.WriteReq_hits::total        5531764                       # number of WriteReq hits
system.cpu.dcache.WriteReq_misses::.cpu.data            2                       # number of WriteReq misses
system.cpu.dcache.WriteReq_misses::.switch_cpus.data        81376                       # number of WriteReq misses
system.cpu.dcache.WriteReq_misses::total        81378                       # number of WriteReq misses
system.cpu.dcache.WriteReq_miss_latency::.switch_cpus.data   2282808490                       # number of WriteReq miss cycles
system.cpu.dcache.WriteReq_miss_latency::total   2282808490                       # number of WriteReq miss cycles
system.cpu.dcache.WriteReq_accesses::.cpu.data            2                       # number of WriteReq accesses(hits+misses)
system.cpu.dcache.WriteReq_accesses::.switch_cpus.data      5613140                       # number of WriteReq accesses(hits+misses)
system.cpu.dcache.WriteReq_accesses::total      5613142                       # number of WriteReq accesses(hits+misses)
system.cpu.dcache.WriteReq_miss_rate::.cpu.data            1                       # miss rate for WriteReq accesses
system.cpu.dcache.WriteReq_miss_rate::.switch_cpus.data     0.014497                       # miss rate for WriteReq accesses
system.cpu.dcache.WriteReq_miss_rate::total     0.014498                       # miss rate for WriteReq accesses
system.cpu.dcache.WriteReq_avg_miss_latency::.switch_cpus.data 28052.601381                       # average WriteReq miss latency
system.cpu.dcache.WriteReq_avg_miss_latency::total 28051.911942                       # average WriteReq miss latency
system.cpu.dcache.WriteReq_mshr_hits::.switch_cpus.data           25                       # number of WriteReq MSHR hits
system.cpu.dcache.WriteReq_mshr_hits::total           25                       # number of WriteReq MSHR hits
system.cpu.dcache.WriteReq_mshr_misses::.switch_cpus.data        81351                       # number of WriteReq MSHR misses
system.cpu.dcache.WriteReq_mshr_misses::total        81351                       # number of WriteReq MSHR misses
system.cpu.dcache.WriteReq_mshr_miss_latency::.switch_cpus.data   2200951992                       # number of WriteReq MSHR miss cycles
system.cpu.dcache.WriteReq_mshr_miss_latency::total   2200951992                       # number of WriteReq MSHR miss cycles
system.cpu.dcache.WriteReq_mshr_miss_rate::.switch_cpus.data     0.014493                       # mshr miss rate for WriteReq accesses
system.cpu.dcache.WriteReq_mshr_miss_rate::total     0.014493                       # mshr miss rate for WriteReq accesses
system.cpu.dcache.WriteReq_avg_mshr_miss_latency::.switch_cpus.data 27055.008445                       # average WriteReq mshr miss latency
system.cpu.dcache.WriteReq_avg_mshr_miss_latency::total 27055.008445                       # average WriteReq mshr miss latency
system.cpu.dcache.SoftPFReq_hits::.switch_cpus.data        45672                       # number of SoftPFReq hits
system.cpu.dcache.SoftPFReq_hits::total         45672                       # number of SoftPFReq hits
system.cpu.dcache.SoftPFReq_misses::.switch_cpus.data         5704                       # number of SoftPFReq misses
system.cpu.dcache.SoftPFReq_misses::total         5704                       # number of SoftPFReq misses
system.cpu.dcache.SoftPFReq_accesses::.switch_cpus.data        51376                       # number of SoftPFReq accesses(hits+misses)
system.cpu.dcache.SoftPFReq_accesses::total        51376                       # number of SoftPFReq accesses(hits+misses)
system.cpu.dcache.SoftPFReq_miss_rate::.switch_cpus.data     0.111025                       # miss rate for SoftPFReq accesses
system.cpu.dcache.SoftPFReq_miss_rate::total     0.111025                       # miss rate for SoftPFReq accesses
system.cpu.dcache.SoftPFReq_mshr_misses::.switch_cpus.data         2068                       # number of SoftPFReq MSHR misses
system.cpu.dcache.SoftPFReq_mshr_misses::total         2068                       # number of SoftPFReq MSHR misses
system.cpu.dcache.SoftPFReq_mshr_miss_latency::.switch_cpus.data    143182000                       # number of SoftPFReq MSHR miss cycles
system.cpu.dcache.SoftPFReq_mshr_miss_latency::total    143182000                       # number of SoftPFReq MSHR miss cycles
system.cpu.dcache.SoftPFReq_mshr_miss_rate::.switch_cpus.data     0.040252                       # mshr miss rate for SoftPFReq accesses
system.cpu.dcache.SoftPFReq_mshr_miss_rate::total     0.040252                       # mshr miss rate for SoftPFReq accesses
system.cpu.dcache.SoftPFReq_avg_mshr_miss_latency::.switch_cpus.data 69236.943907                       # average SoftPFReq mshr miss latency
system.cpu.dcache.SoftPFReq_avg_mshr_miss_latency::total 69236.943907                       # average SoftPFReq mshr miss latency
system.cpu.dcache.tags.pwrStateResidencyTicks::UNDEFINED 70901610118500                       # Cumulative time (in ticks) in various power states
system.cpu.dcache.tags.tagsinuse             0.163472                       # Cycle average of tags in use
system.cpu.dcache.tags.total_refs            19038072                       # Total number of references to valid blocks.
system.cpu.dcache.tags.sampled_refs            105094                       # Sample count of references to valid blocks.
system.cpu.dcache.tags.avg_refs            181.152797                       # Average number of references to valid blocks.
system.cpu.dcache.tags.warmup_cycle      70890209278500                       # Cycle when the warmup percentage was hit.
system.cpu.dcache.tags.occ_blocks::.cpu.data     0.000422                       # Average occupied blocks per requestor
system.cpu.dcache.tags.occ_blocks::.switch_cpus.data     0.163050                       # Average occupied blocks per requestor
system.cpu.dcache.tags.occ_percent::.cpu.data     0.000000                       # Average percentage of cache occupancy
system.cpu.dcache.tags.occ_percent::.switch_cpus.data     0.000159                       # Average percentage of cache occupancy
system.cpu.dcache.tags.occ_percent::total     0.000160                       # Average percentage of cache occupancy
system.cpu.dcache.tags.occ_task_id_blocks::1024         1024                       # Occupied blocks per task id
system.cpu.dcache.tags.age_task_id_blocks_1024::0           13                       # Occupied blocks per task id
system.cpu.dcache.tags.age_task_id_blocks_1024::1          525                       # Occupied blocks per task id
system.cpu.dcache.tags.age_task_id_blocks_1024::2          446                       # Occupied blocks per task id
system.cpu.dcache.tags.age_task_id_blocks_1024::3           40                       # Occupied blocks per task id
system.cpu.dcache.tags.occ_task_id_percent::1024            1                       # Percentage of cache occupancy per task id
system.cpu.dcache.tags.tag_accesses          38197254                       # Number of tag accesses
system.cpu.dcache.tags.data_accesses         38197254                       # Number of data accesses

---------- End Simulation Statistics   ----------
